<additional xmlns:xsi="http://www.w3.org/2001/XMLSchema-instance" xsi:noNamespaceSchemaLocation="http://sumo.dlr.de/xsd/additional_file.xsd">
    <laneAreaDetector file="e2.output.xml" freq="60" friendlyPos="x" id="e2det--J1--E0--E0_1--r" lane="E0_1" pos="87.49000000000001" length="50"/>
    <laneAreaDetector file="e2.output.xml" freq="60" friendlyPos="x" id="e2det--J1--E0--E0_2--s" lane="E0_2" pos="87.49000000000001" length="50"/>
    <laneAreaDetector file="e2.output.xml" freq="60" friendlyPos="x" id="e2det--J1--E0--E0_3--l" lane="E0_3" pos="87.49000000000001" length="50"/>
    <laneAreaDetector file="e2.output.xml" freq="60" friendlyPos="x" id="e2det--J1---E3---E3_1--r" lane="-E3_1" pos="85.98000000000002" length="50"/>
    <laneAreaDetector file="e2.output.xml" freq="60" friendlyPos="x" id="e2det--J1---E3---E3_2--s" lane="-E3_2" pos="85.98000000000002" length="50"/>
    <laneAreaDetector file="e2.output.xml" freq="60" friendlyPos="x" id="e2det--J1---E3---E3_3--l" lane="-E3_3" pos="85.98000000000002" length="50"/>
    <laneAreaDetector file="e2.output.xml" freq="60" friendlyPos="x" id="e2det--J1---E2---E2_1--r" lane="-E2_1" pos="94.49000000000001" length="50"/>
    <laneAreaDetector file="e2.output.xml" freq="60" friendlyPos="x" id="e2det--J1---E2---E2_2--s" lane="-E2_2" pos="94.49000000000001" length="50"/>
    <laneAreaDetector file="e2.output.xml" freq="60" friendlyPos="x" id="e2det--J1---E2---E2_3--l" lane="-E2_3" pos="94.49000000000001" length="50"/>
    <laneAreaDetector file="e2.output.xml" freq="60" friendlyPos="x" id="e2det--J1---E1---E1_1--r" lane="-E1_1" pos="103.15" length="50"/>
    <laneAreaDetector file="e2.output.xml" freq="60" friendlyPos="x" id="e2det--J1---E1---E1_2--s" lane="-E1_2" pos="103.15" length="50"/>
    <laneAreaDetector file="e2.output.xml" freq="60" friendlyPos="x" id="e2det--J1---E1---E1_3--l" lane="-E1_3" pos="103.15" length="50"/>
    <laneAreaDetector file="e2.output.xml" freq="60" friendlyPos="x" id="e2det--J4---E4---E4_1--r" lane="-E4_1" pos="91.53999999999999" length="50"/>
    <laneAreaDetector file="e2.output.xml" freq="60" friendlyPos="x" id="e2det--J4---E4---E4_2--s" lane="-E4_2" pos="91.53999999999999" length="50"/>
    <laneAreaDetector file="e2.output.xml" freq="60" friendlyPos="x" id="e2det--J4---E4---E4_3--l" lane="-E4_3" pos="91.53999999999999" length="50"/>
    <laneAreaDetector file="e2.output.xml" freq="60" friendlyPos="x" id="e2det--J4---E6---E6_1--r" lane="-E6_1" pos="64.7" length="50"/>
    <laneAreaDetector file="e2.output.xml" freq="60" friendlyPos="x" id="e2det--J4---E6---E6_2--s" lane="-E6_2" pos="64.7" length="50"/>
    <laneAreaDetector file="e2.output.xml" freq="60" friendlyPos="x" id="e2det--J4---E6---E6_3--l" lane="-E6_3" pos="64.7" length="50"/>
    <laneAreaDetector file="e2.output.xml" freq="60" friendlyPos="x" id="e2det--J4---E5---E5_1--r" lane="-E5_1" pos="81.92000000000002" length="50"/>
    <laneAreaDetector file="e2.output.xml" freq="60" friendlyPos="x" id="e2det--J4---E5---E5_2--s" lane="-E5_2" pos="81.92000000000002" length="50"/>
    <laneAreaDetector file="e2.output.xml" freq="60" friendlyPos="x" id="e2det--J4---E5---E5_3--l" lane="-E5_3" pos="81.92000000000002" length="50"/>
    <laneAreaDetector file="e2.output.xml" freq="60" friendlyPos="x" id="e2det--J4--E3--E3_1--r" lane="E3_1" pos="85.98000000000002" length="50"/>
    <laneAreaDetector file="e2.output.xml" freq="60" friendlyPos="x" id="e2det--J4--E3--E3_2--s" lane="E3_2" pos="85.98000000000002" length="50"/>
    <laneAreaDetector file="e2.output.xml" freq="60" friendlyPos="x" id="e2det--J4--E3--E3_3--l" lane="E3_3" pos="85.98000000000002" length="50"/>
    <laneAreaDetector file="e2.output.xml" freq="60" friendlyPos="x" id="e2det--J7---E9---E9_1--r" lane="-E9_1" pos="87.43" length="50"/>
    <laneAreaDetector file="e2.output.xml" freq="60" friendlyPos="x" id="e2det--J7---E9---E9_2--s" lane="-E9_2" pos="87.43" length="50"/>
    <laneAreaDetector file="e2.output.xml" freq="60" friendlyPos="x" id="e2det--J7---E9---E9_3--l" lane="-E9_3" pos="87.43" length="50"/>
    <laneAreaDetector file="e2.output.xml" freq="60" friendlyPos="x" id="e2det--J7---E8---E8_1--r" lane="-E8_1" pos="75.34" length="50"/>
    <laneAreaDetector file="e2.output.xml" freq="60" friendlyPos="x" id="e2det--J7---E8---E8_2--s" lane="-E8_2" pos="75.34" length="50"/>
    <laneAreaDetector file="e2.output.xml" freq="60" friendlyPos="x" id="e2det--J7---E8---E8_3--l" lane="-E8_3" pos="75.34" length="50"/>
    <laneAreaDetector file="e2.output.xml" freq="60" friendlyPos="x" id="e2det--J7--E6--E6_1--r" lane="E6_1" pos="64.7" length="50"/>
    <laneAreaDetector file="e2.output.xml" freq="60" friendlyPos="x" id="e2det--J7--E6--E6_2--s" lane="E6_2" pos="64.7" length="50"/>
    <laneAreaDetector file="e2.output.xml" freq="60" friendlyPos="x" id="e2det--J7--E6--E6_3--l" lane="E6_3" pos="64.7" length="50"/>
    <laneAreaDetector file="e2.output.xml" freq="60" friendlyPos="x" id="e2det--J7---E7---E7_1--r" lane="-E7_1" pos="94.78" length="50"/>
    <laneAreaDetector file="e2.output.xml" freq="60" friendlyPos="x" id="e2det--J7---E7---E7_2--s" lane="-E7_2" pos="94.78" length="50"/>
    <laneAreaDetector file="e2.output.xml" freq="60" friendlyPos="x" id="e2det--J7---E7---E7_3--l" lane="-E7_3" pos="94.78" length="50"/>
</additional>
