<?xml version="1.0" encoding="UTF-8"?>

<!-- generated on 2026-06-21 12:32:32 by Eclipse SUMO jtrrouter Version 1.18.0
<configuration xmlns:xsi="http://www.w3.org/2001/XMLSchema-instance" xsi:noNamespaceSchemaLocation="http://sumo.dlr.de/xsd/jtrrouterConfiguration.xsd">

    <input>
        <net-file value="/home/hoanganh/Project/TSC-CoLight/Scenario/./4nodes/env/4nodes.net.xml"/>
        <route-files value="/home/hoanganh/Project/TSC-CoLight/Scenario/./4nodes/_testflow.trip.xml"/>
        <turn-ratio-files value="/home/hoanganh/Project/TSC-CoLight/Scenario/./4nodes/_testflow.turndefs.xml"/>
    </input>

    <output>
        <output-file value="/home/hoanganh/Project/TSC-CoLight/Scenario/./4nodes/routes/vehicle.rou.xml"/>
    </output>

    <processing>
        <randomize-flows value="True"/>
        <accept-all-destinations value="True"/>
    </processing>

    <defaults>
        <departlane value="random"/>
    </defaults>

    <report>
        <no-warnings value="true"/>
    </report>

    <random_number>
        <seed value="777"/>
    </random_number>

</configuration>
-->

<routes xmlns:xsi="http://www.w3.org/2001/XMLSchema-instance" xsi:noNamespaceSchemaLocation="http://sumo.dlr.de/xsd/routes_file.xsd">
    <vType id="motorbike" length="2.00" minGap="0.50" maxSpeed="11.11" desiredMaxSpeed="11.11" vClass="motorcycle" color="yellow" accel="1.5" tau="1.0"/>
    <vehicle id="-E5__0__motorbike.0" type="motorbike" depart="0.02" departLane="random">
        <route edges="-E5 E4"/>
    </vehicle>
    <vehicle id="-E1__0__motorbike.0" type="motorbike" depart="0.03" departLane="random">
        <route edges="-E1 -E0"/>
    </vehicle>
    <vehicle id="-E4__0__motorbike.0" type="motorbike" depart="0.09" departLane="random">
        <route edges="-E4 E5"/>
    </vehicle>
    <vehicle id="-E4__0__motorbike.1" type="motorbike" depart="0.19" departLane="random">
        <route edges="-E4 E5"/>
    </vehicle>
    <vehicle id="-E5__0__motorbike.1" type="motorbike" depart="0.29" departLane="random">
        <route edges="-E5 E6 E7 E10"/>
    </vehicle>
    <vType id="car" length="4.50" minGap="1.00" maxSpeed="11.11" desiredMaxSpeed="11.11" vClass="passenger" color="155,89,182" accel="1.5" tau="1.0"/>
    <vehicle id="E0__0__car.0" type="car" depart="0.84" departLane="random">
        <route edges="E0 E3 E5"/>
    </vehicle>
    <vehicle id="-E11__0__motorbike.0" type="motorbike" depart="1.00" departLane="random">
        <route edges="-E11 -E2 E1"/>
    </vehicle>
    <vehicle id="-E10__0__motorbike.0" type="motorbike" depart="1.21" departLane="random">
        <route edges="-E10 E11"/>
    </vehicle>
    <vehicle id="-E5__0__motorbike.2" type="motorbike" depart="1.48" departLane="random">
        <route edges="-E5 E6 E8"/>
    </vehicle>
    <vehicle id="-E1__0__car.0" type="car" depart="1.54" departLane="random">
        <route edges="-E1 -E0"/>
    </vehicle>
    <vehicle id="-E4__0__motorbike.2" type="motorbike" depart="1.72" departLane="random">
        <route edges="-E4 E5"/>
    </vehicle>
    <vehicle id="-E9__0__motorbike.0" type="motorbike" depart="2.06" departLane="random">
        <route edges="-E9 E7 E10"/>
    </vehicle>
    <vehicle id="-E5__0__motorbike.3" type="motorbike" depart="2.31" departLane="random">
        <route edges="-E5 E6 E8"/>
    </vehicle>
    <vehicle id="-E9__0__motorbike.1" type="motorbike" depart="2.73" departLane="random">
        <route edges="-E9 E8"/>
    </vehicle>
    <vehicle id="-E1__0__car.1" type="car" depart="3.43" departLane="random">
        <route edges="-E1 -E0"/>
    </vehicle>
    <vehicle id="-E8__0__motorbike.0" type="motorbike" depart="3.44" departLane="random">
        <route edges="-E8 -E6 -E3 -E0"/>
    </vehicle>
    <vehicle id="-E8__0__motorbike.1" type="motorbike" depart="3.47" departLane="random">
        <route edges="-E8 E9"/>
    </vehicle>
    <vehicle id="-E4__0__motorbike.3" type="motorbike" depart="3.47" departLane="random">
        <route edges="-E4 -E3 E2 E11"/>
    </vehicle>
    <vehicle id="E0__0__motorbike.0" type="motorbike" depart="3.58" departLane="random">
        <route edges="E0 E3 E6 E8"/>
    </vehicle>
    <vehicle id="-E11__0__car.0" type="car" depart="3.60" departLane="random">
        <route edges="-E11 E10"/>
    </vehicle>
    <vehicle id="E0__0__car.1" type="car" depart="4.16" departLane="random">
        <route edges="E0 E3 E6 E8"/>
    </vehicle>
    <vehicle id="-E9__0__car.0" type="car" depart="4.42" departLane="random">
        <route edges="-E9 E8"/>
    </vehicle>
    <vehicle id="-E1__0__motorbike.1" type="motorbike" depart="4.54" departLane="random">
        <route edges="-E1 -E0"/>
    </vehicle>
    <vehicle id="-E4__0__motorbike.4" type="motorbike" depart="4.84" departLane="random">
        <route edges="-E4 -E3 -E0"/>
    </vehicle>
    <vehicle id="-E8__0__motorbike.2" type="motorbike" depart="4.98" departLane="random">
        <route edges="-E8 -E6 -E3 E2 E11"/>
    </vehicle>
    <vehicle id="-E8__0__motorbike.3" type="motorbike" depart="5.02" departLane="random">
        <route edges="-E8 E9"/>
    </vehicle>
    <vehicle id="-E8__0__motorbike.4" type="motorbike" depart="5.34" departLane="random">
        <route edges="-E8 E9"/>
    </vehicle>
    <vehicle id="-E11__0__motorbike.1" type="motorbike" depart="5.41" departLane="random">
        <route edges="-E11 -E2 E3 E6 E7 E10"/>
    </vehicle>
    <vehicle id="E0__0__car.2" type="car" depart="5.68" departLane="random">
        <route edges="E0 E3 E4"/>
    </vehicle>
    <vehicle id="-E1__0__motorbike.2" type="motorbike" depart="5.99" departLane="random">
        <route edges="-E1 -E0"/>
    </vehicle>
    <vehicle id="E0__0__motorbike.1" type="motorbike" depart="6.54" departLane="random">
        <route edges="E0 E1"/>
    </vehicle>
    <vehicle id="E0__0__motorbike.2" type="motorbike" depart="6.80" departLane="random">
        <route edges="E0 E1"/>
    </vehicle>
    <vehicle id="-E8__0__motorbike.5" type="motorbike" depart="6.85" departLane="random">
        <route edges="-E8 -E6 E5"/>
    </vehicle>
    <vehicle id="-E8__0__motorbike.6" type="motorbike" depart="7.40" departLane="random">
        <route edges="-E8 E9"/>
    </vehicle>
    <vehicle id="-E10__0__motorbike.1" type="motorbike" depart="7.55" departLane="random">
        <route edges="-E10 -E2 E1"/>
    </vehicle>
    <vehicle id="E0__0__car.3" type="car" depart="7.71" departLane="random">
        <route edges="E0 E1"/>
    </vehicle>
    <vehicle id="-E1__0__motorbike.3" type="motorbike" depart="7.95" departLane="random">
        <route edges="-E1 -E0"/>
    </vehicle>
    <vehicle id="-E5__0__motorbike.4" type="motorbike" depart="8.46" departLane="random">
        <route edges="-E5 E4"/>
    </vehicle>
    <vehicle id="-E5__0__motorbike.5" type="motorbike" depart="8.53" departLane="random">
        <route edges="-E5 E6 E7 -E2 E1"/>
    </vehicle>
    <vehicle id="-E11__0__motorbike.2" type="motorbike" depart="8.79" departLane="random">
        <route edges="-E11 -E2 E3 E6 E8"/>
    </vehicle>
    <vehicle id="-E11__0__motorbike.3" type="motorbike" depart="8.82" departLane="random">
        <route edges="-E11 -E2 E3 E4"/>
    </vehicle>
    <vehicle id="-E11__0__car.1" type="car" depart="9.26" departLane="random">
        <route edges="-E11 E10"/>
    </vehicle>
    <vehicle id="-E1__0__motorbike.4" type="motorbike" depart="9.31" departLane="random">
        <route edges="-E1 E2 -E7 E9"/>
    </vehicle>
    <vehicle id="-E11__0__motorbike.4" type="motorbike" depart="9.59" departLane="random">
        <route edges="-E11 -E2 E3 E6 E7 E10"/>
    </vehicle>
    <vehicle id="-E5__0__motorbike.6" type="motorbike" depart="9.59" departLane="random">
        <route edges="-E5 E4"/>
    </vehicle>
    <vehicle id="-E8__0__motorbike.7" type="motorbike" depart="9.68" departLane="random">
        <route edges="-E8 -E6 E5"/>
    </vehicle>
    <vehicle id="-E4__0__motorbike.5" type="motorbike" depart="10.17" departLane="random">
        <route edges="-E4 E5"/>
    </vehicle>
    <vehicle id="-E9__0__motorbike.2" type="motorbike" depart="10.24" departLane="random">
        <route edges="-E9 E8"/>
    </vehicle>
    <vehicle id="-E10__0__car.0" type="car" depart="10.58" departLane="random">
        <route edges="-E10 E11"/>
    </vehicle>
    <vehicle id="-E8__0__motorbike.8" type="motorbike" depart="10.71" departLane="random">
        <route edges="-E8 -E6 E5"/>
    </vehicle>
    <vehicle id="-E10__0__car.1" type="car" depart="10.81" departLane="random">
        <route edges="-E10 -E7 -E6 -E3 -E0"/>
    </vehicle>
    <vehicle id="E0__0__car.4" type="car" depart="10.82" departLane="random">
        <route edges="E0 E3 E6 E7 E10"/>
    </vehicle>
    <vehicle id="E0__0__motorbike.3" type="motorbike" depart="10.88" departLane="random">
        <route edges="E0 E3 E6 E8"/>
    </vehicle>
    <vehicle id="E0__0__motorbike.4" type="motorbike" depart="11.03" departLane="random">
        <route edges="E0 E3 E5"/>
    </vehicle>
    <vehicle id="-E1__0__motorbike.5" type="motorbike" depart="11.26" departLane="random">
        <route edges="-E1 E2 -E7 -E6 -E3 -E0"/>
    </vehicle>
    <vehicle id="-E4__0__motorbike.6" type="motorbike" depart="12.29" departLane="random">
        <route edges="-E4 E5"/>
    </vehicle>
    <vehicle id="E0__0__motorbike.5" type="motorbike" depart="12.32" departLane="random">
        <route edges="E0 E3 E6 E8"/>
    </vehicle>
    <vehicle id="-E1__0__car.2" type="car" depart="12.41" departLane="random">
        <route edges="-E1 E2 -E7 E9"/>
    </vehicle>
    <vehicle id="-E8__0__motorbike.9" type="motorbike" depart="13.00" departLane="random">
        <route edges="-E8 E9"/>
    </vehicle>
    <vehicle id="-E8__0__motorbike.10" type="motorbike" depart="13.15" departLane="random">
        <route edges="-E8 -E6 -E3 E2 -E7 E9"/>
    </vehicle>
    <vehicle id="-E8__0__motorbike.11" type="motorbike" depart="13.62" departLane="random">
        <route edges="-E8 -E6 -E3 -E0"/>
    </vehicle>
    <vehicle id="-E1__0__car.3" type="car" depart="13.67" departLane="random">
        <route edges="-E1 E2 -E7 -E6 -E3 -E0"/>
    </vehicle>
    <vehicle id="-E11__0__motorbike.5" type="motorbike" depart="13.75" departLane="random">
        <route edges="-E11 E10"/>
    </vehicle>
    <vehicle id="-E8__0__car.0" type="car" depart="13.90" departLane="random">
        <route edges="-E8 E9"/>
    </vehicle>
    <vehicle id="-E4__0__motorbike.7" type="motorbike" depart="14.01" departLane="random">
        <route edges="-E4 E5"/>
    </vehicle>
    <vehicle id="-E5__0__motorbike.7" type="motorbike" depart="14.15" departLane="random">
        <route edges="-E5 E6 E7 -E2 E3 E4"/>
    </vehicle>
    <vehicle id="-E4__0__car.0" type="car" depart="14.36" departLane="random">
        <route edges="-E4 E5"/>
    </vehicle>
    <vehicle id="-E1__0__motorbike.6" type="motorbike" depart="15.08" departLane="random">
        <route edges="-E1 E2 -E7 -E6 E5"/>
    </vehicle>
    <vehicle id="-E1__0__car.4" type="car" depart="15.59" departLane="random">
        <route edges="-E1 E2 E11"/>
    </vehicle>
    <vehicle id="E0__0__car.5" type="car" depart="15.68" departLane="random">
        <route edges="E0 E3 E4"/>
    </vehicle>
    <vehicle id="-E9__0__car.1" type="car" depart="15.69" departLane="random">
        <route edges="-E9 E7 -E2 E1"/>
    </vehicle>
    <vehicle id="E0__0__motorbike.6" type="motorbike" depart="15.93" departLane="random">
        <route edges="E0 E1"/>
    </vehicle>
    <vehicle id="-E10__0__motorbike.2" type="motorbike" depart="15.95" departLane="random">
        <route edges="-E10 -E7 -E6 E5"/>
    </vehicle>
    <vehicle id="-E4__0__car.1" type="car" depart="16.26" departLane="random">
        <route edges="-E4 -E3 -E0"/>
    </vehicle>
    <vehicle id="-E1__0__car.5" type="car" depart="16.46" departLane="random">
        <route edges="-E1 E2 E11"/>
    </vehicle>
    <vehicle id="-E5__0__car.0" type="car" depart="16.61" departLane="random">
        <route edges="-E5 E6 E8"/>
    </vehicle>
    <vehicle id="-E1__0__car.6" type="car" depart="16.73" departLane="random">
        <route edges="-E1 -E0"/>
    </vehicle>
    <vehicle id="E0__0__car.6" type="car" depart="16.75" departLane="random">
        <route edges="E0 E3 E4"/>
    </vehicle>
    <vehicle id="-E9__0__car.2" type="car" depart="17.02" departLane="random">
        <route edges="-E9 E7 -E2 E3 E6 E8"/>
    </vehicle>
    <vehicle id="-E5__0__car.1" type="car" depart="17.09" departLane="random">
        <route edges="-E5 E6 E8"/>
    </vehicle>
    <vehicle id="E0__0__motorbike.7" type="motorbike" depart="17.37" departLane="random">
        <route edges="E0 E1"/>
    </vehicle>
    <vehicle id="-E11__0__car.2" type="car" depart="17.41" departLane="random">
        <route edges="-E11 E10"/>
    </vehicle>
    <vehicle id="-E9__0__motorbike.3" type="motorbike" depart="17.80" departLane="random">
        <route edges="-E9 E7 E10"/>
    </vehicle>
    <vehicle id="-E5__0__motorbike.8" type="motorbike" depart="17.86" departLane="random">
        <route edges="-E5 E6 E7 -E2 E1"/>
    </vehicle>
    <vehicle id="-E9__0__motorbike.4" type="motorbike" depart="17.94" departLane="random">
        <route edges="-E9 E7 E10"/>
    </vehicle>
    <vehicle id="-E10__0__motorbike.3" type="motorbike" depart="18.20" departLane="random">
        <route edges="-E10 E11"/>
    </vehicle>
    <vehicle id="-E11__0__motorbike.6" type="motorbike" depart="18.82" departLane="random">
        <route edges="-E11 E10"/>
    </vehicle>
    <vehicle id="-E1__0__car.7" type="car" depart="18.84" departLane="random">
        <route edges="-E1 -E0"/>
    </vehicle>
    <vehicle id="-E5__0__motorbike.9" type="motorbike" depart="19.11" departLane="random">
        <route edges="-E5 E6 E8"/>
    </vehicle>
    <vehicle id="E0__0__motorbike.8" type="motorbike" depart="19.28" departLane="random">
        <route edges="E0 E3 E4"/>
    </vehicle>
    <vehicle id="-E5__0__car.2" type="car" depart="19.40" departLane="random">
        <route edges="-E5 E6 E7 -E2 E1"/>
    </vehicle>
    <vehicle id="-E5__0__motorbike.10" type="motorbike" depart="19.56" departLane="random">
        <route edges="-E5 E4"/>
    </vehicle>
    <vehicle id="-E10__0__car.2" type="car" depart="20.24" departLane="random">
        <route edges="-E10 E11"/>
    </vehicle>
    <vehicle id="E0__0__motorbike.9" type="motorbike" depart="20.32" departLane="random">
        <route edges="E0 E3 E4"/>
    </vehicle>
    <vehicle id="-E1__0__car.8" type="car" depart="20.50" departLane="random">
        <route edges="-E1 -E0"/>
    </vehicle>
    <vehicle id="-E11__0__motorbike.7" type="motorbike" depart="21.15" departLane="random">
        <route edges="-E11 E10"/>
    </vehicle>
    <vehicle id="-E11__0__motorbike.8" type="motorbike" depart="21.25" departLane="random">
        <route edges="-E11 -E2 E3 E6 E7 E10"/>
    </vehicle>
    <vehicle id="-E10__0__motorbike.4" type="motorbike" depart="22.06" departLane="random">
        <route edges="-E10 E11"/>
    </vehicle>
    <vehicle id="-E11__0__car.3" type="car" depart="22.40" departLane="random">
        <route edges="-E11 E10"/>
    </vehicle>
    <vehicle id="-E9__0__motorbike.5" type="motorbike" depart="23.13" departLane="random">
        <route edges="-E9 E7 E10"/>
    </vehicle>
    <vehicle id="-E4__0__motorbike.8" type="motorbike" depart="23.16" departLane="random">
        <route edges="-E4 -E3 E2 -E7 E9"/>
    </vehicle>
    <vehicle id="-E9__0__motorbike.6" type="motorbike" depart="23.17" departLane="random">
        <route edges="-E9 E7 -E2 E1"/>
    </vehicle>
    <vehicle id="E0__0__car.7" type="car" depart="23.35" departLane="random">
        <route edges="E0 E1"/>
    </vehicle>
    <vehicle id="-E5__0__motorbike.11" type="motorbike" depart="23.38" departLane="random">
        <route edges="-E5 E4"/>
    </vehicle>
    <vehicle id="-E10__0__motorbike.5" type="motorbike" depart="23.58" departLane="random">
        <route edges="-E10 E11"/>
    </vehicle>
    <vehicle id="-E5__0__motorbike.12" type="motorbike" depart="24.00" departLane="random">
        <route edges="-E5 E4"/>
    </vehicle>
    <vehicle id="-E8__0__motorbike.12" type="motorbike" depart="24.06" departLane="random">
        <route edges="-E8 E9"/>
    </vehicle>
    <vehicle id="-E9__0__motorbike.7" type="motorbike" depart="24.16" departLane="random">
        <route edges="-E9 E7 E10"/>
    </vehicle>
    <vehicle id="-E4__0__car.2" type="car" depart="24.69" departLane="random">
        <route edges="-E4 E5"/>
    </vehicle>
    <vehicle id="-E11__0__car.4" type="car" depart="24.84" departLane="random">
        <route edges="-E11 -E2 E3 E4"/>
    </vehicle>
    <vehicle id="-E10__0__motorbike.6" type="motorbike" depart="25.07" departLane="random">
        <route edges="-E10 -E7 -E6 E5"/>
    </vehicle>
    <vehicle id="-E11__0__motorbike.9" type="motorbike" depart="25.18" departLane="random">
        <route edges="-E11 -E2 E3 E4"/>
    </vehicle>
    <vehicle id="-E1__0__motorbike.7" type="motorbike" depart="25.22" departLane="random">
        <route edges="-E1 E2 E11"/>
    </vehicle>
    <vehicle id="-E5__0__motorbike.13" type="motorbike" depart="25.38" departLane="random">
        <route edges="-E5 E6 E8"/>
    </vehicle>
    <vehicle id="-E4__0__motorbike.9" type="motorbike" depart="25.80" departLane="random">
        <route edges="-E4 -E3 E2 E11"/>
    </vehicle>
    <vehicle id="-E5__0__motorbike.14" type="motorbike" depart="25.85" departLane="random">
        <route edges="-E5 E4"/>
    </vehicle>
    <vehicle id="-E4__0__motorbike.10" type="motorbike" depart="25.86" departLane="random">
        <route edges="-E4 -E3 -E0"/>
    </vehicle>
    <vehicle id="E0__0__motorbike.10" type="motorbike" depart="25.90" departLane="random">
        <route edges="E0 E3 E6 E7 -E2 E1"/>
    </vehicle>
    <vehicle id="-E1__0__motorbike.8" type="motorbike" depart="26.23" departLane="random">
        <route edges="-E1 E2 E11"/>
    </vehicle>
    <vehicle id="-E1__0__motorbike.9" type="motorbike" depart="26.40" departLane="random">
        <route edges="-E1 -E0"/>
    </vehicle>
    <vehicle id="E0__0__motorbike.11" type="motorbike" depart="26.70" departLane="random">
        <route edges="E0 E2 -E7 E9"/>
    </vehicle>
    <vehicle id="-E10__0__motorbike.7" type="motorbike" depart="26.74" departLane="random">
        <route edges="-E10 -E7 -E6 E5"/>
    </vehicle>
    <vehicle id="-E8__0__motorbike.13" type="motorbike" depart="26.84" departLane="random">
        <route edges="-E8 E9"/>
    </vehicle>
    <vehicle id="E0__0__motorbike.12" type="motorbike" depart="26.95" departLane="random">
        <route edges="E0 E1"/>
    </vehicle>
    <vehicle id="-E10__0__car.3" type="car" depart="27.01" departLane="random">
        <route edges="-E10 -E7 -E6 -E3 -E0"/>
    </vehicle>
    <vehicle id="-E9__0__motorbike.8" type="motorbike" depart="27.25" departLane="random">
        <route edges="-E9 E8"/>
    </vehicle>
    <vehicle id="-E4__0__motorbike.11" type="motorbike" depart="27.35" departLane="random">
        <route edges="-E4 -E3 E2 -E7 -E6 E5"/>
    </vehicle>
    <vehicle id="-E11__0__car.5" type="car" depart="27.54" departLane="random">
        <route edges="-E11 -E2 E3 E6 E8"/>
    </vehicle>
    <vehicle id="-E10__0__motorbike.8" type="motorbike" depart="28.08" departLane="random">
        <route edges="-E10 E11"/>
    </vehicle>
    <vehicle id="-E10__0__car.4" type="car" depart="28.11" departLane="random">
        <route edges="-E10 E11"/>
    </vehicle>
    <vehicle id="-E1__0__motorbike.10" type="motorbike" depart="28.29" departLane="random">
        <route edges="-E1 E2 -E7 E9"/>
    </vehicle>
    <vehicle id="-E5__0__motorbike.15" type="motorbike" depart="28.54" departLane="random">
        <route edges="-E5 E6 E8"/>
    </vehicle>
    <vehicle id="E0__0__motorbike.13" type="motorbike" depart="28.79" departLane="random">
        <route edges="E0 E3 E6 E8"/>
    </vehicle>
    <vehicle id="-E11__0__car.6" type="car" depart="29.73" departLane="random">
        <route edges="-E11 -E2 E1"/>
    </vehicle>
    <vehicle id="-E1__0__car.9" type="car" depart="29.83" departLane="random">
        <route edges="-E1 E2 -E7 -E6 -E3 -E0"/>
    </vehicle>
    <vehicle id="-E5__0__car.3" type="car" depart="30.15" departLane="random">
        <route edges="-E5 E6 E9"/>
    </vehicle>
    <vehicle id="-E4__0__car.3" type="car" depart="30.51" departLane="random">
        <route edges="-E4 E5"/>
    </vehicle>
    <vehicle id="-E10__0__car.5" type="car" depart="30.61" departLane="random">
        <route edges="-E10 -E7 E9"/>
    </vehicle>
    <vehicle id="-E9__0__motorbike.9" type="motorbike" depart="30.66" departLane="random">
        <route edges="-E9 E8"/>
    </vehicle>
    <vehicle id="-E8__0__motorbike.14" type="motorbike" depart="30.73" departLane="random">
        <route edges="-E8 -E6 E5"/>
    </vehicle>
    <vehicle id="-E1__0__motorbike.11" type="motorbike" depart="30.89" departLane="random">
        <route edges="-E1 E2 -E7 E9"/>
    </vehicle>
    <vehicle id="-E9__0__motorbike.10" type="motorbike" depart="31.07" departLane="random">
        <route edges="-E9 E7 -E2 E1"/>
    </vehicle>
    <vehicle id="-E1__0__motorbike.12" type="motorbike" depart="31.08" departLane="random">
        <route edges="-E1 E2 -E7 -E6 E5"/>
    </vehicle>
    <vehicle id="-E10__0__car.6" type="car" depart="31.28" departLane="random">
        <route edges="-E10 -E7 -E6 E5"/>
    </vehicle>
    <vehicle id="-E5__0__motorbike.16" type="motorbike" depart="31.41" departLane="random">
        <route edges="-E5 E6 E7 -E2 E3 E4"/>
    </vehicle>
    <vehicle id="-E10__0__car.7" type="car" depart="31.50" departLane="random">
        <route edges="-E10 E11"/>
    </vehicle>
    <vehicle id="-E9__0__car.3" type="car" depart="31.56" departLane="random">
        <route edges="-E9 E7 E10"/>
    </vehicle>
    <vehicle id="-E8__0__motorbike.15" type="motorbike" depart="31.63" departLane="random">
        <route edges="-E8 -E6 E5"/>
    </vehicle>
    <vehicle id="-E10__0__motorbike.9" type="motorbike" depart="31.72" departLane="random">
        <route edges="-E10 -E7 -E6 E5"/>
    </vehicle>
    <vehicle id="-E5__0__motorbike.17" type="motorbike" depart="31.76" departLane="random">
        <route edges="-E5 E6 E8"/>
    </vehicle>
    <vehicle id="-E4__0__motorbike.12" type="motorbike" depart="31.85" departLane="random">
        <route edges="-E4 E5"/>
    </vehicle>
    <vehicle id="-E5__0__motorbike.18" type="motorbike" depart="31.94" departLane="random">
        <route edges="-E5 E4"/>
    </vehicle>
    <vehicle id="-E8__0__car.1" type="car" depart="32.07" departLane="random">
        <route edges="-E8 -E6 E5"/>
    </vehicle>
    <vehicle id="-E9__0__motorbike.11" type="motorbike" depart="32.14" departLane="random">
        <route edges="-E9 E7 E10"/>
    </vehicle>
    <vehicle id="-E5__0__motorbike.19" type="motorbike" depart="32.29" departLane="random">
        <route edges="-E5 E6 E8"/>
    </vehicle>
    <vehicle id="-E9__0__motorbike.12" type="motorbike" depart="32.73" departLane="random">
        <route edges="-E9 E7 E10"/>
    </vehicle>
    <vehicle id="-E8__0__motorbike.16" type="motorbike" depart="32.85" departLane="random">
        <route edges="-E8 E9"/>
    </vehicle>
    <vehicle id="-E11__0__motorbike.10" type="motorbike" depart="33.16" departLane="random">
        <route edges="-E11 -E2 E3 E4"/>
    </vehicle>
    <vehicle id="-E5__0__motorbike.20" type="motorbike" depart="33.35" departLane="random">
        <route edges="-E5 E6 E8"/>
    </vehicle>
    <vehicle id="-E8__0__motorbike.17" type="motorbike" depart="33.36" departLane="random">
        <route edges="-E8 E9"/>
    </vehicle>
    <vehicle id="-E10__0__motorbike.10" type="motorbike" depart="33.39" departLane="random">
        <route edges="-E10 E11"/>
    </vehicle>
    <vehicle id="-E8__0__motorbike.18" type="motorbike" depart="33.56" departLane="random">
        <route edges="-E8 E7 E10"/>
    </vehicle>
    <vehicle id="-E10__0__car.8" type="car" depart="33.57" departLane="random">
        <route edges="-E10 E11"/>
    </vehicle>
    <vehicle id="-E5__0__motorbike.21" type="motorbike" depart="33.66" departLane="random">
        <route edges="-E5 -E3 -E0"/>
    </vehicle>
    <vehicle id="-E1__0__motorbike.13" type="motorbike" depart="33.66" departLane="random">
        <route edges="-E1 -E0"/>
    </vehicle>
    <vehicle id="-E8__0__motorbike.19" type="motorbike" depart="33.90" departLane="random">
        <route edges="-E8 E9"/>
    </vehicle>
    <vehicle id="-E11__0__car.7" type="car" depart="34.31" departLane="random">
        <route edges="-E11 -E2 E1"/>
    </vehicle>
    <vehicle id="-E5__0__motorbike.22" type="motorbike" depart="34.35" departLane="random">
        <route edges="-E5 E6 E7 E10"/>
    </vehicle>
    <vehicle id="-E11__0__car.8" type="car" depart="34.60" departLane="random">
        <route edges="-E11 E10"/>
    </vehicle>
    <vehicle id="-E9__0__car.4" type="car" depart="35.06" departLane="random">
        <route edges="-E9 E8"/>
    </vehicle>
    <vehicle id="-E5__0__motorbike.23" type="motorbike" depart="35.15" departLane="random">
        <route edges="-E5 E6 E7 E10"/>
    </vehicle>
    <vehicle id="-E8__0__car.2" type="car" depart="35.18" departLane="random">
        <route edges="-E8 -E6 E5"/>
    </vehicle>
    <vehicle id="-E4__0__motorbike.13" type="motorbike" depart="35.70" departLane="random">
        <route edges="-E4 E5"/>
    </vehicle>
    <vehicle id="E0__0__car.8" type="car" depart="35.91" departLane="random">
        <route edges="E0 E1"/>
    </vehicle>
    <vehicle id="-E11__0__car.9" type="car" depart="36.68" departLane="random">
        <route edges="-E11 E10"/>
    </vehicle>
    <vehicle id="-E9__0__motorbike.13" type="motorbike" depart="36.77" departLane="random">
        <route edges="-E9 E8"/>
    </vehicle>
    <vehicle id="E0__0__motorbike.14" type="motorbike" depart="36.79" departLane="random">
        <route edges="E0 E2 E11"/>
    </vehicle>
    <vehicle id="-E9__0__motorbike.14" type="motorbike" depart="36.83" departLane="random">
        <route edges="-E9 E7 -E2 E3 E6 E8"/>
    </vehicle>
    <vehicle id="-E11__0__car.10" type="car" depart="37.11" departLane="random">
        <route edges="-E11 E10"/>
    </vehicle>
    <vehicle id="-E10__0__motorbike.11" type="motorbike" depart="37.22" departLane="random">
        <route edges="-E10 -E7 E9"/>
    </vehicle>
    <vehicle id="-E10__0__motorbike.12" type="motorbike" depart="37.26" departLane="random">
        <route edges="-E10 -E7 -E6 E5"/>
    </vehicle>
    <vehicle id="-E10__0__motorbike.13" type="motorbike" depart="37.41" departLane="random">
        <route edges="-E10 -E7 -E6 E5"/>
    </vehicle>
    <vehicle id="-E10__0__motorbike.14" type="motorbike" depart="37.44" departLane="random">
        <route edges="-E10 -E7 E9"/>
    </vehicle>
    <vehicle id="-E9__0__car.5" type="car" depart="37.79" departLane="random">
        <route edges="-E9 -E6 E5"/>
    </vehicle>
    <vehicle id="-E4__0__car.4" type="car" depart="37.85" departLane="random">
        <route edges="-E4 -E3 -E0"/>
    </vehicle>
    <vehicle id="-E1__0__car.10" type="car" depart="37.85" departLane="random">
        <route edges="-E1 -E0"/>
    </vehicle>
    <vehicle id="-E9__0__motorbike.15" type="motorbike" depart="37.89" departLane="random">
        <route edges="-E9 E8"/>
    </vehicle>
    <vehicle id="-E10__0__motorbike.15" type="motorbike" depart="39.01" departLane="random">
        <route edges="-E10 -E7 E8"/>
    </vehicle>
    <vehicle id="-E8__0__motorbike.20" type="motorbike" depart="39.12" departLane="random">
        <route edges="-E8 E9"/>
    </vehicle>
    <vehicle id="-E1__0__motorbike.14" type="motorbike" depart="39.15" departLane="random">
        <route edges="-E1 E2 E11"/>
    </vehicle>
    <vehicle id="-E8__0__car.3" type="car" depart="39.24" departLane="random">
        <route edges="-E8 E9"/>
    </vehicle>
    <vehicle id="-E4__0__motorbike.14" type="motorbike" depart="39.52" departLane="random">
        <route edges="-E4 E5"/>
    </vehicle>
    <vehicle id="-E8__0__motorbike.21" type="motorbike" depart="39.75" departLane="random">
        <route edges="-E8 E9"/>
    </vehicle>
    <vehicle id="-E5__0__car.4" type="car" depart="39.77" departLane="random">
        <route edges="-E5 E6 E8"/>
    </vehicle>
    <vehicle id="-E4__0__car.5" type="car" depart="39.82" departLane="random">
        <route edges="-E4 E6 E8"/>
    </vehicle>
    <vehicle id="-E10__0__car.9" type="car" depart="39.97" departLane="random">
        <route edges="-E10 E11"/>
    </vehicle>
    <vehicle id="E0__0__motorbike.15" type="motorbike" depart="40.54" departLane="random">
        <route edges="E0 E1"/>
    </vehicle>
    <vehicle id="E0__0__motorbike.16" type="motorbike" depart="40.85" departLane="random">
        <route edges="E0 E3 E4"/>
    </vehicle>
    <vehicle id="-E11__0__motorbike.11" type="motorbike" depart="40.90" departLane="random">
        <route edges="-E11 -E2 E3 E6 E8"/>
    </vehicle>
    <vehicle id="E0__0__car.9" type="car" depart="41.30" departLane="random">
        <route edges="E0 E3 E6 E7 -E2 E1"/>
    </vehicle>
    <vehicle id="-E10__0__motorbike.16" type="motorbike" depart="41.40" departLane="random">
        <route edges="-E10 -E7 E9"/>
    </vehicle>
    <vehicle id="-E10__0__car.10" type="car" depart="41.64" departLane="random">
        <route edges="-E10 E11"/>
    </vehicle>
    <vehicle id="-E9__0__motorbike.16" type="motorbike" depart="41.94" departLane="random">
        <route edges="-E9 E8"/>
    </vehicle>
    <vehicle id="-E10__0__car.11" type="car" depart="42.09" departLane="random">
        <route edges="-E10 E11"/>
    </vehicle>
    <vehicle id="-E4__0__motorbike.15" type="motorbike" depart="42.11" departLane="random">
        <route edges="-E4 -E3 -E0"/>
    </vehicle>