<?xml version="1.0" encoding="UTF-8"?>

<!-- generated on 2026-06-21 12:12:14 by Eclipse SUMO jtrrouter Version 1.18.0
<configuration xmlns:xsi="http://www.w3.org/2001/XMLSchema-instance" xsi:noNamespaceSchemaLocation="http://sumo.dlr.de/xsd/jtrrouterConfiguration.xsd">

    <input>
        <net-file value="/home/hoanganh/Project/TSC-CoLight/Scenario/./3nodes/env/3nodes.net.xml"/>
        <route-files value="/home/hoanganh/Project/TSC-CoLight/Scenario/./3nodes/_testflow.trip.xml"/>
        <turn-ratio-files value="/home/hoanganh/Project/TSC-CoLight/Scenario/./3nodes/_testflow.turndefs.xml"/>
    </input>

    <output>
        <output-file value="/home/hoanganh/Project/TSC-CoLight/Scenario/./3nodes/routes/vehicle.rou.xml"/>
    </output>

    <processing>
        <randomize-flows value="True"/>
        <accept-all-destinations value="True"/>
    </processing>

    <defaults>
        <departlane value="random"/>
    </defaults>

    <report>
        <no-warnings value="true"/>
    </report>

    <random_number>
        <seed value="777"/>
    </random_number>

</configuration>
-->

<routes xmlns:xsi="http://www.w3.org/2001/XMLSchema-instance" xsi:noNamespaceSchemaLocation="http://sumo.dlr.de/xsd/routes_file.xsd">
    <vType id="car" length="4.50" minGap="1.00" maxSpeed="11.11" desiredMaxSpeed="11.11" vClass="passenger" color="155,89,182" accel="1.5" tau="1.0"/>
    <vehicle id="-E4__0__car.0" type="car" depart="3.58" departLane="random">
        <route edges="-E4 -E3 E2"/>
    </vehicle>
    <vType id="motorbike" length="2.00" minGap="0.50" maxSpeed="11.11" desiredMaxSpeed="11.11" vClass="motorcycle" color="yellow" accel="1.5" tau="1.0"/>
    <vehicle id="-E7__0__motorbike.0" type="motorbike" depart="6.54" departLane="random">
        <route edges="-E7 -E6 E4"/>
    </vehicle>
    <vehicle id="-E7__0__motorbike.1" type="motorbike" depart="6.80" departLane="random">
        <route edges="-E7 E9"/>
    </vehicle>
    <vehicle id="-E9__0__motorbike.0" type="motorbike" depart="7.71" departLane="random">
        <route edges="-E9 E8"/>
    </vehicle>
    <vehicle id="-E9__0__motorbike.1" type="motorbike" depart="10.82" departLane="random">
        <route edges="-E9 -E6 E4"/>
    </vehicle>
    <vehicle id="-E2__0__motorbike.0" type="motorbike" depart="10.88" departLane="random">
        <route edges="-E2 -E0"/>
    </vehicle>
    <vehicle id="-E5__0__motorbike.0" type="motorbike" depart="11.03" departLane="random">
        <route edges="-E5 E4"/>
    </vehicle>
    <vehicle id="-E7__0__car.0" type="car" depart="12.32" departLane="random">
        <route edges="-E7 E8"/>
    </vehicle>
    <vehicle id="E0__0__car.0" type="car" depart="15.93" departLane="random">
        <route edges="E0 E3 E5"/>
    </vehicle>
    <vehicle id="-E4__0__car.1" type="car" depart="17.37" departLane="random">
        <route edges="-E4 -E3 E1"/>
    </vehicle>
    <vehicle id="-E8__0__motorbike.0" type="motorbike" depart="19.28" departLane="random">
        <route edges="-E8 E7"/>
    </vehicle>
    <vehicle id="-E8__0__motorbike.1" type="motorbike" depart="20.32" departLane="random">
        <route edges="-E8 -E6 -E3 -E0"/>
    </vehicle>
    <vehicle id="-E5__0__motorbike.1" type="motorbike" depart="25.90" departLane="random">
        <route edges="-E5 E4"/>
    </vehicle>
    <vehicle id="-E1__0__motorbike.0" type="motorbike" depart="26.70" departLane="random">
        <route edges="-E1 E3 E6 E9"/>
    </vehicle>
    <vehicle id="-E8__0__motorbike.2" type="motorbike" depart="26.95" departLane="random">
        <route edges="-E8 -E6 E4"/>
    </vehicle>
    <vehicle id="-E2__0__car.0" type="car" depart="28.79" departLane="random">
        <route edges="-E2 E1"/>
    </vehicle>
    <vehicle id="-E1__0__motorbike.1" type="motorbike" depart="36.79" departLane="random">
        <route edges="-E1 E3 E6 E8"/>
    </vehicle>
    <vehicle id="-E1__0__motorbike.2" type="motorbike" depart="40.54" departLane="random">
        <route edges="-E1 -E0"/>
    </vehicle>
    <vehicle id="-E5__0__motorbike.2" type="motorbike" depart="40.85" departLane="random">
        <route edges="-E5 E4"/>
    </vehicle>
    <vehicle id="-E9__0__motorbike.2" type="motorbike" depart="41.30" departLane="random">
        <route edges="-E9 E7"/>
    </vehicle>
    <vehicle id="-E4__0__motorbike.0" type="motorbike" depart="44.46" departLane="random">
        <route edges="-E4 E5"/>
    </vehicle>
    <vehicle id="E0__0__motorbike.0" type="motorbike" depart="47.92" departLane="random">
        <route edges="E0 E1"/>
    </vehicle>
    <vehicle id="E0__0__car.1" type="car" depart="52.13" departLane="random">
        <route edges="E0 E1"/>
    </vehicle>
    <vehicle id="-E2__0__motorbike.1" type="motorbike" depart="54.94" departLane="random">
        <route edges="-E2 -E0"/>
    </vehicle>
    <vehicle id="-E2__1__motorbike.0" type="motorbike" depart="60.84" departLane="random">
        <route edges="-E2 E3 E4"/>
    </vehicle>
    <vehicle id="-E4__1__car.0" type="car" depart="64.16" departLane="random">
        <route edges="-E4 -E3 E1"/>
    </vehicle>
    <vehicle id="-E1__1__motorbike.0" type="motorbike" depart="65.68" departLane="random">
        <route edges="-E1 E3 E6 E8"/>
    </vehicle>
    <vehicle id="-E7__1__motorbike.0" type="motorbike" depart="65.99" departLane="random">
        <route edges="-E7 -E6 -E3 -E0"/>
    </vehicle>
    <vehicle id="-E5__1__car.0" type="car" depart="67.95" departLane="random">
        <route edges="-E5 E6 E9"/>
    </vehicle>
    <vehicle id="-E1__1__car.0" type="car" depart="75.68" departLane="random">
        <route edges="-E1 E3 E6 E9"/>
    </vehicle>
    <vehicle id="-E2__1__motorbike.1" type="motorbike" depart="76.75" departLane="random">
        <route edges="-E2 E3 E5"/>
    </vehicle>
    <vehicle id="-E2__1__car.0" type="car" depart="83.35" departLane="random">
        <route edges="-E2 E1"/>
    </vehicle>
    <vehicle id="-E8__1__motorbike.0" type="motorbike" depart="85.22" departLane="random">
        <route edges="-E8 -E6 E4"/>
    </vehicle>
    <vehicle id="-E9__1__motorbike.0" type="motorbike" depart="86.23" departLane="random">
        <route edges="-E9 E7"/>
    </vehicle>
    <vehicle id="-E9__1__car.0" type="car" depart="86.40" departLane="random">
        <route edges="-E9 -E6 E4"/>
    </vehicle>
    <vehicle id="-E7__1__motorbike.1" type="motorbike" depart="88.29" departLane="random">
        <route edges="-E7 E9"/>
    </vehicle>
    <vehicle id="-E8__1__motorbike.1" type="motorbike" depart="91.08" departLane="random">
        <route edges="-E8 -E6 -E3 E1"/>
    </vehicle>
    <vehicle id="-E5__1__car.1" type="car" depart="93.66" departLane="random">
        <route edges="-E5 E6 E9"/>
    </vehicle>
    <vehicle id="E0__1__motorbike.0" type="motorbike" depart="95.91" departLane="random">
        <route edges="E0 E2"/>
    </vehicle>
    <vehicle id="-E9__1__motorbike.1" type="motorbike" depart="99.15" departLane="random">
        <route edges="-E9 -E6 E5"/>
    </vehicle>
    <vehicle id="-E7__1__car.0" type="car" depart="103.19" departLane="random">
        <route edges="-E7 -E6 E5"/>
    </vehicle>
    <vehicle id="-E1__1__car.1" type="car" depart="106.02" departLane="random">
        <route edges="-E1 E2"/>
    </vehicle>
    <vehicle id="-E5__1__motorbike.0" type="motorbike" depart="106.02" departLane="random">
        <route edges="-E5 E6 E9"/>
    </vehicle>
    <vehicle id="-E8__1__motorbike.2" type="motorbike" depart="108.14" departLane="random">
        <route edges="-E8 E9"/>
    </vehicle>
    <vehicle id="E0__1__motorbike.1" type="motorbike" depart="108.23" departLane="random">
        <route edges="E0 E3 E6 E9"/>
    </vehicle>
    <vehicle id="-E4__1__motorbike.0" type="motorbike" depart="111.52" departLane="random">
        <route edges="-E4 -E3 -E0"/>
    </vehicle>
    <vehicle id="-E4__1__motorbike.1" type="motorbike" depart="113.45" departLane="random">
        <route edges="-E4 -E3 E2"/>
    </vehicle>
    <vehicle id="E0__1__car.0" type="car" depart="116.15" departLane="random">
        <route edges="E0 E1"/>
    </vehicle>
    <vehicle id="-E1__2__motorbike.0" type="motorbike" depart="120.03" departLane="random">
        <route edges="-E1 E3 E5"/>
    </vehicle>
    <vehicle id="-E8__2__motorbike.0" type="motorbike" depart="121.54" departLane="random">
        <route edges="-E8 E7"/>
    </vehicle>
    <vehicle id="-E8__2__car.0" type="car" depart="123.43" departLane="random">
        <route edges="-E8 -E6 E4"/>
    </vehicle>
    <vehicle id="E0__2__car.0" type="car" depart="124.54" departLane="random">
        <route edges="E0 E1"/>
    </vehicle>
    <vehicle id="-E2__2__motorbike.0" type="motorbike" depart="129.31" departLane="random">
        <route edges="-E2 E1"/>
    </vehicle>
    <vehicle id="-E4__2__motorbike.0" type="motorbike" depart="131.26" departLane="random">
        <route edges="-E4 -E3 E2"/>
    </vehicle>
    <vehicle id="-E9__2__motorbike.0" type="motorbike" depart="132.41" departLane="random">
        <route edges="-E9 E8"/>
    </vehicle>
    <vehicle id="-E9__2__motorbike.1" type="motorbike" depart="133.67" departLane="random">
        <route edges="-E9 E7"/>
    </vehicle>
    <vehicle id="-E2__2__car.0" type="car" depart="135.08" departLane="random">
        <route edges="-E2 E1"/>
    </vehicle>
    <vehicle id="-E7__2__motorbike.0" type="motorbike" depart="135.59" departLane="random">
        <route edges="-E7 -E6 E4"/>
    </vehicle>
    <vehicle id="-E8__2__car.1" type="car" depart="136.46" departLane="random">
        <route edges="-E8 -E6 E4"/>
    </vehicle>
    <vehicle id="-E5__2__motorbike.0" type="motorbike" depart="138.84" departLane="random">
        <route edges="-E5 E6 E8"/>
    </vehicle>
    <vehicle id="-E9__2__car.0" type="car" depart="140.50" departLane="random">
        <route edges="-E9 E7"/>
    </vehicle>
    <vehicle id="-E5__2__car.0" type="car" depart="149.83" departLane="random">
        <route edges="-E5 E4"/>
    </vehicle>
    <vehicle id="E0__2__motorbike.0" type="motorbike" depart="150.89" departLane="random">
        <route edges="E0 E2"/>
    </vehicle>
    <vehicle id="-E7__2__motorbike.1" type="motorbike" depart="162.87" departLane="random">
        <route edges="-E7 E8"/>
    </vehicle>
    <vehicle id="-E5__2__motorbike.1" type="motorbike" depart="163.28" departLane="random">
        <route edges="-E5 E6 E9"/>
    </vehicle>
    <vehicle id="-E7__2__motorbike.2" type="motorbike" depart="165.90" departLane="random">
        <route edges="-E7 -E6 E4"/>
    </vehicle>
    <vehicle id="-E1__2__car.0" type="car" depart="169.14" departLane="random">
        <route edges="-E1 E3 E4"/>
    </vehicle>
    <vehicle id="-E4__2__motorbike.1" type="motorbike" depart="171.42" departLane="random">
        <route edges="-E4 -E3 E1"/>
    </vehicle>
    <vehicle id="-E4__2__car.0" type="car" depart="173.47" departLane="random">
        <route edges="-E4 E5"/>
    </vehicle>
    <vehicle id="-E2__2__motorbike.1" type="motorbike" depart="174.52" departLane="random">
        <route edges="-E2 E3 E5"/>
    </vehicle>
    <vehicle id="-E1__2__motorbike.1" type="motorbike" depart="177.89" departLane="random">
        <route edges="-E1 E3 E5"/>
    </vehicle>
    <vehicle id="E0__2__motorbike.1" type="motorbike" depart="179.78" departLane="random">
        <route edges="E0 E1"/>
    </vehicle>
    <vehicle id="-E7__3__car.0" type="car" depart="180.09" departLane="random">
        <route edges="-E7 E8"/>
    </vehicle>
    <vehicle id="-E8__3__motorbike.0" type="motorbike" depart="180.19" departLane="random">
        <route edges="-E8 E9"/>
    </vehicle>
    <vehicle id="-E2__3__motorbike.0" type="motorbike" depart="181.72" departLane="random">
        <route edges="-E2 E1"/>
    </vehicle>
    <vehicle id="E0__3__car.0" type="car" depart="183.47" departLane="random">
        <route edges="E0 E2"/>
    </vehicle>
    <vehicle id="-E9__3__motorbike.0" type="motorbike" depart="184.84" departLane="random">
        <route edges="-E9 -E6 E4"/>
    </vehicle>
    <vehicle id="-E1__3__motorbike.0" type="motorbike" depart="190.17" departLane="random">
        <route edges="-E1 E2"/>
    </vehicle>
    <vehicle id="-E1__3__motorbike.1" type="motorbike" depart="192.29" departLane="random">
        <route edges="-E1 E3 E5"/>
    </vehicle>
    <vehicle id="-E4__3__motorbike.0" type="motorbike" depart="194.01" departLane="random">
        <route edges="-E4 E6 E7"/>
    </vehicle>
    <vehicle id="E0__3__motorbike.0" type="motorbike" depart="196.73" departLane="random">
        <route edges="E0 E1"/>
    </vehicle>
    <vehicle id="-E4__3__car.0" type="car" depart="203.16" departLane="random">
        <route edges="-E4 E5"/>
    </vehicle>
    <vehicle id="-E9__3__motorbike.1" type="motorbike" depart="205.80" departLane="random">
        <route edges="-E9 -E6 E4"/>
    </vehicle>
    <vehicle id="-E5__3__car.0" type="car" depart="205.86" departLane="random">
        <route edges="-E5 E4"/>
    </vehicle>
    <vehicle id="-E2__3__motorbike.1" type="motorbike" depart="207.35" departLane="random">
        <route edges="-E2 E3 E6 E9"/>
    </vehicle>
    <vehicle id="-E7__3__car.1" type="car" depart="211.85" departLane="random">
        <route edges="-E7 -E6 E4"/>
    </vehicle>
    <vehicle id="-E5__3__motorbike.0" type="motorbike" depart="215.70" departLane="random">
        <route edges="-E5 E6 E8"/>
    </vehicle>
    <vehicle id="E0__3__motorbike.1" type="motorbike" depart="217.85" departLane="random">
        <route edges="E0 E1"/>
    </vehicle>
    <vehicle id="-E8__3__motorbike.1" type="motorbike" depart="219.52" departLane="random">
        <route edges="-E8 E7"/>
    </vehicle>
    <vehicle id="-E9__3__motorbike.2" type="motorbike" depart="222.11" departLane="random">
        <route edges="-E9 E7"/>
    </vehicle>
    <vehicle id="-E2__3__car.0" type="car" depart="224.98" departLane="random">
        <route edges="-E2 -E0"/>
    </vehicle>
    <vehicle id="-E4__3__motorbike.1" type="motorbike" depart="227.92" departLane="random">
        <route edges="-E4 E5"/>
    </vehicle>
    <vehicle id="-E7__3__motorbike.0" type="motorbike" depart="230.44" departLane="random">
        <route edges="-E7 E8"/>
    </vehicle>
    <vehicle id="-E1__3__motorbike.2" type="motorbike" depart="230.49" departLane="random">
        <route edges="-E1 -E0"/>
    </vehicle>
    <vehicle id="-E5__3__motorbike.1" type="motorbike" depart="232.24" departLane="random">
        <route edges="-E5 -E3 -E0"/>
    </vehicle>
    <vehicle id="-E8__3__motorbike.2" type="motorbike" depart="238.72" departLane="random">
        <route edges="-E8 E7"/>
    </vehicle>
    <vehicle id="-E7__4__motorbike.0" type="motorbike" depart="243.44" departLane="random">
        <route edges="-E7 E8"/>
    </vehicle>
    <vehicle id="-E4__4__motorbike.0" type="motorbike" depart="243.47" departLane="random">
        <route edges="-E4 -E3 -E0"/>
    </vehicle>
    <vehicle id="-E2__4__motorbike.0" type="motorbike" depart="245.34" departLane="random">
        <route edges="-E2 E3 E4"/>
    </vehicle>
    <vehicle id="-E8__4__motorbike.0" type="motorbike" depart="246.85" departLane="random">
        <route edges="-E8 E7"/>
    </vehicle>
    <vehicle id="-E9__4__motorbike.0" type="motorbike" depart="247.40" departLane="random">
        <route edges="-E9 E8"/>
    </vehicle>
    <vehicle id="-E7__4__motorbike.1" type="motorbike" depart="250.71" departLane="random">
        <route edges="-E7 E9"/>
    </vehicle>
    <vehicle id="-E1__4__motorbike.0" type="motorbike" depart="250.81" departLane="random">
        <route edges="-E1 -E0"/>
    </vehicle>
    <vehicle id="-E5__4__motorbike.0" type="motorbike" depart="253.15" departLane="random">
        <route edges="-E5 -E3 -E0"/>
    </vehicle>
    <vehicle id="-E2__4__car.0" type="car" depart="253.62" departLane="random">
        <route edges="-E2 E3 E6 E8"/>
    </vehicle>
    <vehicle id="-E1__4__motorbike.1" type="motorbike" depart="270.73" departLane="random">
        <route edges="-E1 E2"/>
    </vehicle>
    <vehicle id="E0__4__car.0" type="car" depart="271.28" departLane="random">
        <route edges="E0 E2"/>
    </vehicle>
    <vehicle id="-E7__4__motorbike.2" type="motorbike" depart="272.85" departLane="random">
        <route edges="-E7 -E6 E4"/>
    </vehicle>
    <vehicle id="-E5__4__motorbike.1" type="motorbike" depart="273.56" departLane="random">
        <route edges="-E5 E6 E8"/>
    </vehicle>
    <vehicle id="-E9__4__car.0" type="car" depart="279.75" departLane="random">
        <route edges="-E9 E7"/>
    </vehicle>
    <vehicle id="-E5__4__motorbike.2" type="motorbike" depart="282.32" departLane="random">
        <route edges="-E5 E4"/>
    </vehicle>
    <vehicle id="E0__4__motorbike.0" type="motorbike" depart="282.53" departLane="random">
        <route edges="E0 E2"/>
    </vehicle>
    <vehicle id="E0__4__motorbike.1" type="motorbike" depart="283.32" departLane="random">
        <route edges="E0 E3 E5"/>
    </vehicle>
    <vehicle id="-E4__4__motorbike.1" type="motorbike" depart="284.33" departLane="random">
        <route edges="-E4 -E3 E1"/>
    </vehicle>
    <vehicle id="-E1__4__motorbike.2" type="motorbike" depart="285.20" departLane="random">
        <route edges="-E1 E3 E5"/>
    </vehicle>
    <vehicle id="-E9__4__motorbike.1" type="motorbike" depart="285.69" departLane="random">
        <route edges="-E9 E7"/>
    </vehicle>
    <vehicle id="-E4__4__motorbike.2" type="motorbike" depart="285.79" departLane="random">
        <route edges="-E4 E5"/>
    </vehicle>
    <vehicle id="-E2__4__motorbike.1" type="motorbike" depart="293.97" departLane="random">
        <route edges="-E2 E3 E5"/>
    </vehicle>
    <vehicle id="-E8__4__car.0" type="car" depart="295.68" departLane="random">
        <route edges="-E8 E7"/>
    </vehicle>
    <vehicle id="-E8__4__car.1" type="car" depart="296.13" departLane="random">
        <route edges="-E8 E9"/>
    </vehicle>
    <vehicle id="-E2__5__motorbike.0" type="motorbike" depart="304.98" departLane="random">
        <route edges="-E2 E1"/>
    </vehicle>
    <vehicle id="-E4__5__motorbike.0" type="motorbike" depart="305.02" departLane="random">
        <route edges="-E4 E6 E8"/>
    </vehicle>
    <vehicle id="-E1__5__motorbike.0" type="motorbike" depart="309.68" departLane="random">
        <route edges="-E1 -E0"/>
    </vehicle>
    <vehicle id="E0__5__motorbike.0" type="motorbike" depart="313.00" departLane="random">
        <route edges="E0 E1"/>
    </vehicle>
    <vehicle id="-E5__5__motorbike.0" type="motorbike" depart="313.90" departLane="random">
        <route edges="-E5 -E3 E1"/>
    </vehicle>
    <vehicle id="-E4__5__motorbike.1" type="motorbike" depart="324.06" departLane="random">
        <route edges="-E4 -E3 -E0"/>
    </vehicle>
    <vehicle id="-E4__5__car.0" type="car" depart="326.84" departLane="random">
        <route edges="-E4 -E3 -E0"/>
    </vehicle>
    <vehicle id="-E8__5__car.0" type="car" depart="327.25" departLane="random">
        <route edges="-E8 -E6 -E3 E2"/>
    </vehicle>
    <vehicle id="E0__5__car.0" type="car" depart="331.63" departLane="random">
        <route edges="E0 E2"/>
    </vehicle>
    <vehicle id="-E5__5__car.0" type="car" depart="332.07" departLane="random">
        <route edges="-E5 -E3 E1"/>
    </vehicle>
    <vehicle id="-E1__5__car.0" type="car" depart="333.36" departLane="random">
        <route edges="-E1 E3 E5"/>
    </vehicle>
    <vehicle id="-E2__5__motorbike.1" type="motorbike" depart="333.90" departLane="random">
        <route edges="-E2 E3 E6 E8"/>
    </vehicle>
    <vehicle id="-E7__5__car.0" type="car" depart="335.18" departLane="random">
        <route edges="-E7 E8"/>
    </vehicle>
    <vehicle id="-E2__5__car.0" type="car" depart="339.12" departLane="random">
        <route edges="-E2 E1"/>
    </vehicle>
    <vehicle id="-E7__5__car.1" type="car" depart="339.24" departLane="random">
        <route edges="-E7 -E6 E4"/>
    </vehicle>
    <vehicle id="-E5__5__motorbike.1" type="motorbike" depart="347.47" departLane="random">
        <route edges="-E5 E4"/>
    </vehicle>
    <vehicle id="E0__5__car.1" type="car" depart="348.47" departLane="random">
        <route edges="E0 E1"/>
    </vehicle>
    <vehicle id="-E9__5__car.0" type="car" depart="348.73" departLane="random">
        <route edges="-E9 E8"/>
    </vehicle>
    <vehicle id="-E8__5__motorbike.0" type="motorbike" depart="352.10" departLane="random">
        <route edges="-E8 E9"/>
    </vehicle>
    <vehicle id="-E9__5__motorbike.0" type="motorbike" depart="355.96" departLane="random">
        <route edges="-E9 -E6 E4"/>
    </vehicle>
    <vehicle id="-E1__5__motorbike.1" type="motorbike" depart="357.06" departLane="random">
        <route edges="-E1 E3 E4"/>
    </vehicle>
    <vehicle id="-E9__5__motorbike.1" type="motorbike" depart="358.04" departLane="random">
        <route edges="-E9 E8"/>
    </vehicle>
    <vehicle id="-E8__5__motorbike.1" type="motorbike" depart="358.25" departLane="random">
        <route edges="-E8 E7"/>
    </vehicle>
    <vehicle id="-E7__5__motorbike.0" type="motorbike" depart="358.92" departLane="random">
        <route edges="-E7 E8"/>
    </vehicle>
    <vehicle id="-E8__6__motorbike.0" type="motorbike" depart="362.06" departLane="random">
        <route edges="-E8 E9"/>
    </vehicle>
    <vehicle id="-E1__6__motorbike.0" type="motorbike" depart="362.73" departLane="random">
        <route edges="-E1 E3 E5"/>
    </vehicle>
    <vehicle id="-E2__6__motorbike.0" type="motorbike" depart="370.24" departLane="random">
        <route edges="-E2 -E0"/>
    </vehicle>
    <vehicle id="-E2__6__car.0" type="car" depart="377.80" departLane="random">
        <route edges="-E2 -E0"/>
    </vehicle>
    <vehicle id="-E2__6__motorbike.1" type="motorbike" depart="377.94" departLane="random">
        <route edges="-E2 -E0"/>
    </vehicle>
    <vehicle id="-E7__6__car.0" type="car" depart="383.13" departLane="random">
        <route edges="-E7 E8"/>
    </vehicle>
    <vehicle id="-E4__6__motorbike.0" type="motorbike" depart="383.17" departLane="random">
        <route edges="-E4 -E3 -E0"/>
    </vehicle>
    <vehicle id="-E5__6__motorbike.0" type="motorbike" depart="384.16" departLane="random">
        <route edges="-E5 E4"/>
    </vehicle>
    <vehicle id="-E7__6__motorbike.0" type="motorbike" depart="390.66" departLane="random">
        <route edges="-E7 E8"/>
    </vehicle>
    <vehicle id="-E1__6__motorbike.1" type="motorbike" depart="391.07" departLane="random">
        <route edges="-E1 E3 E4"/>
    </vehicle>
    <vehicle id="-E9__6__motorbike.0" type="motorbike" depart="391.56" departLane="random">
        <route edges="-E9 -E6 -E3 -E0"/>
    </vehicle>
    <vehicle id="-E1__6__car.0" type="car" depart="392.14" departLane="random">
        <route edges="-E1 E2"/>
    </vehicle>
    <vehicle id="-E5__6__motorbike.1" type="motorbike" depart="392.73" departLane="random">
        <route edges="-E5 E6 E7"/>
    </vehicle>
    <vehicle id="-E7__6__motorbike.1" type="motorbike" depart="396.77" departLane="random">
        <route edges="-E7 -E6 E4"/>
    </vehicle>
    <vehicle id="-E4__6__motorbike.1" type="motorbike" depart="396.83" departLane="random">
        <route edges="-E4 -E3 E1"/>
    </vehicle>
    <vehicle id="-E5__6__car.0" type="car" depart="397.89" departLane="random">
        <route edges="-E5 E4"/>
    </vehicle>
    <vehicle id="E0__6__motorbike.0" type="motorbike" depart="401.94" departLane="random">
        <route edges="E0 E3 E5"/>
    </vehicle>
    <vehicle id="E0__6__car.0" type="car" depart="406.58" departLane="random">
        <route edges="E0 E2"/>
    </vehicle>
    <vehicle id="-E9__6__motorbike.1" type="motorbike" depart="407.48" departLane="random">
        <route edges="-E9 E8"/>
    </vehicle>
    <vehicle id="-E4__6__motorbike.2" type="motorbike" depart="407.50" departLane="random">
        <route edges="-E4 -E3 E1"/>
    </vehicle>
    <vehicle id="E0__6__motorbike.1" type="motorbike" depart="408.84" departLane="random">
        <route edges="E0 E1"/>
    </vehicle>
    <vehicle id="-E9__6__car.0" type="car" depart="412.97" departLane="random">
        <route edges="-E9 E7"/>
    </vehicle>
    <vehicle id="-E8__6__car.0" type="car" depart="418.13" departLane="random">
        <route edges="-E8 E7"/>
    </vehicle>
    <vehicle id="-E8__6__motorbike.1" type="motorbike" depart="419.89" departLane="random">
        <route edges="-E8 E9"/>
    </vehicle>
    <vehicle id="E0__7__car.0" type="car" depart="420.47" departLane="random">
        <route edges="E0 E1"/>
    </vehicle>
    <vehicle id="-E7__7__motorbike.0" type="motorbike" depart="421.83" departLane="random">
        <route edges="-E7 E8"/>
    </vehicle>
    <vehicle id="-E4__7__car.0" type="car" depart="422.98" departLane="random">
        <route edges="-E4 -E3 E1"/>
    </vehicle>
    <vehicle id="E0__7__motorbike.0" type="motorbike" depart="424.42" departLane="random">
        <route edges="E0 E1"/>
    </vehicle>
    <vehicle id="-E2__7__motorbike.0" type="motorbike" depart="426.52" departLane="random">
        <route edges="-E2 E3 E4"/>
    </vehicle>
    <vehicle id="-E2__7__motorbike.1" type="motorbike" depart="431.48" departLane="random">
        <route edges="-E2 E3 E4"/>
    </vehicle>
    <vehicle id="-E1__7__motorbike.0" type="motorbike" depart="434.07" departLane="random">
        <route edges="-E1 E3 E6 E9"/>
    </vehicle>
    <vehicle id="-E9__7__motorbike.0" type="motorbike" depart="436.42" departLane="random">
        <route edges="-E9 -E6 E5"/>
    </vehicle>
    <vehicle id="-E5__7__motorbike.0" type="motorbike" depart="436.70" departLane="random">
        <route edges="-E5 -E3 E1"/>
    </vehicle>
    <vehicle id="-E7__7__motorbike.1" type="motorbike" depart="439.87" departLane="random">
        <route edges="-E7 -E6 E5"/>
    </vehicle>
    <vehicle id="-E8__7__motorbike.0" type="motorbike" depart="444.43" departLane="random">
        <route edges="-E8 E7"/>
    </vehicle>
    <vehicle id="-E5__7__motorbike.1" type="motorbike" depart="451.15" departLane="random">
        <route edges="-E5 E4"/>
    </vehicle>
    <vehicle id="-E9__7__car.0" type="car" depart="453.70" departLane="random">
        <route edges="-E9 -E6 E4"/>
    </vehicle>
    <vehicle id="-E2__7__car.0" type="car" depart="453.74" departLane="random">
        <route edges="-E2 E3 E5"/>
    </vehicle>
    <vehicle id="E0__7__motorbike.1" type="motorbike" depart="455.06" departLane="random">
        <route edges="E0 E1"/>
    </vehicle>
    <vehicle id="-E4__7__motorbike.0" type="motorbike" depart="455.27" departLane="random">
        <route edges="-E4 -E3 -E0"/>
    </vehicle>
    <vehicle id="-E9__7__car.1" type="car" depart="460.70" departLane="random">
        <route edges="-E9 -E6 -E3 -E0"/>
    </vehicle>
    <vehicle id="-E4__7__car.1" type="car" depart="466.35" departLane="random">
        <route edges="-E4 -E3 -E0"/>
    </vehicle>
    <vehicle id="-E8__7__car.0" type="car" depart="471.20" departLane="random">
        <route edges="-E8 E7"/>
    </vehicle>
    <vehicle id="-E8__7__car.1" type="car" depart="471.46" departLane="random">
        <route edges="-E8 E9"/>
    </vehicle>
    <vehicle id="-E7__7__motorbike.2" type="motorbike" depart="471.68" departLane="random">
        <route edges="-E7 E9"/>
    </vehicle>
    <vehicle id="-E1__7__motorbike.1" type="motorbike" depart="473.27" departLane="random">
        <route edges="-E1 E2"/>
    </vehicle>
    <vehicle id="-E5__7__motorbike.2" type="motorbike" depart="479.51" departLane="random">
        <route edges="-E5 E4"/>
    </vehicle>
    <vehicle id="-E1__7__motorbike.2" type="motorbike" depart="479.83" departLane="random">
        <route edges="-E1 E2"/>
    </vehicle>
    <vehicle id="E0__8__car.0" type="car" depart="481.59" departLane="random">
        <route edges="E0 E1"/>
    </vehicle>
    <vehicle id="-E4__8__car.0" type="car" depart="484.44" departLane="random">
        <route edges="-E4 -E3 -E0"/>
    </vehicle>
    <vehicle id="-E8__8__motorbike.0" type="motorbike" depart="484.92" departLane="random">
        <route edges="-E8 E9"/>
    </vehicle>
    <vehicle id="-E1__8__car.0" type="car" depart="492.95" departLane="random">
        <route edges="-E1 E3 E6 E8"/>
    </vehicle>
    <vehicle id="E0__8__motorbike.0" type="motorbike" depart="492.98" departLane="random">
        <route edges="E0 E3 E5"/>
    </vehicle>
    <vehicle id="-E7__8__motorbike.0" type="motorbike" depart="493.87" departLane="random">
        <route edges="-E7 E9"/>
    </vehicle>
    <vehicle id="-E9__8__motorbike.0" type="motorbike" depart="494.67" departLane="random">
        <route edges="-E9 E7"/>
    </vehicle>
    <vehicle id="E0__8__car.1" type="car" depart="502.49" departLane="random">
        <route edges="E0 E3 E4"/>
    </vehicle>
    <vehicle id="-E5__8__motorbike.0" type="motorbike" depart="502.77" departLane="random">
        <route edges="-E5 E4"/>
    </vehicle>
    <vehicle id="-E9__8__motorbike.1" type="motorbike" depart="503.31" departLane="random">
        <route edges="-E9 -E6 E5"/>
    </vehicle>
    <vehicle id="-E4__8__motorbike.0" type="motorbike" depart="503.33" departLane="random">
        <route edges="-E4 E5"/>
    </vehicle>
    <vehicle id="-E2__8__motorbike.0" type="motorbike" depart="506.31" departLane="random">
        <route edges="-E2 E1"/>
    </vehicle>
    <vehicle id="-E5__8__motorbike.1" type="motorbike" depart="506.47" departLane="random">
        <route edges="-E5 E4"/>
    </vehicle>
    <vehicle id="-E7__8__motorbike.1" type="motorbike" depart="508.66" departLane="random">
        <route edges="-E7 E8"/>
    </vehicle>
    <vehicle id="-E9__8__motorbike.2" type="motorbike" depart="512.15" departLane="random">
        <route edges="-E9 E7"/>
    </vehicle>
    <vehicle id="-E2__8__car.0" type="car" depart="520.26" departLane="random">
        <route edges="-E2 -E0"/>
    </vehicle>