<?xml version="1.0" encoding="UTF-8"?>

<!-- generated on 2026-06-21 13:29:57 by Eclipse SUMO jtrrouter Version 1.18.0
<configuration xmlns:xsi="http://www.w3.org/2001/XMLSchema-instance" xsi:noNamespaceSchemaLocation="http://sumo.dlr.de/xsd/jtrrouterConfiguration.xsd">

    <input>
        <net-file value="/home/hoanganh/Project/TSC-CoLight/Scenario/./test/env/test.net.xml"/>
        <route-files value="/home/hoanganh/Project/TSC-CoLight/Scenario/./test/_testflow.trip.xml"/>
        <turn-ratio-files value="/home/hoanganh/Project/TSC-CoLight/Scenario/./test/_testflow.turndefs.xml"/>
    </input>

    <output>
        <output-file value="/home/hoanganh/Project/TSC-CoLight/Scenario/./test/routes/vehicle.rou.xml"/>
    </output>

    <processing>
        <randomize-flows value="True"/>
        <accept-all-destinations value="True"/>
    </processing>

    <defaults>
        <departlane value="random"/>
    </defaults>

    <report>
        <no-warnings value="true"/>
    </report>

    <random_number>
        <seed value="777"/>
    </random_number>

</configuration>
-->

<routes xmlns:xsi="http://www.w3.org/2001/XMLSchema-instance" xsi:noNamespaceSchemaLocation="http://sumo.dlr.de/xsd/routes_file.xsd">
    <vType id="motorbike" length="2.00" minGap="0.50" maxSpeed="11.11" desiredMaxSpeed="11.11" vClass="motorcycle" color="yellow" accel="1.5" tau="1.0"/>
    <vehicle id="-E4__0__motorbike.0" type="motorbike" depart="3.58" departLane="random">
        <route edges="-E4 -E3 E2"/>
    </vehicle>
    <vehicle id="-E6__0__motorbike.0" type="motorbike" depart="6.54" departLane="random">
        <route edges="-E6 E5"/>
    </vehicle>
    <vehicle id="-E6__0__motorbike.1" type="motorbike" depart="6.80" departLane="random">
        <route edges="-E6 E4"/>
    </vehicle>
    <vType id="car" length="4.50" minGap="1.00" maxSpeed="11.11" desiredMaxSpeed="11.11" vClass="passenger" color="155,89,182" accel="1.5" tau="1.0"/>
    <vehicle id="-E2__0__car.0" type="car" depart="10.88" departLane="random">
        <route edges="-E2 -E0"/>
    </vehicle>
    <vehicle id="-E5__0__motorbike.0" type="motorbike" depart="11.03" departLane="random">
        <route edges="-E5 E4"/>
    </vehicle>
    <vehicle id="-E6__0__motorbike.2" type="motorbike" depart="12.32" departLane="random">
        <route edges="-E6 -E3 E1"/>
    </vehicle>
    <vehicle id="E0__0__car.0" type="car" depart="15.93" departLane="random">
        <route edges="E0 E2"/>
    </vehicle>
    <vehicle id="-E4__0__motorbike.1" type="motorbike" depart="17.37" departLane="random">
        <route edges="-E4 E6"/>
    </vehicle>
    <vehicle id="-E5__0__motorbike.1" type="motorbike" depart="25.90" departLane="random">
        <route edges="-E5 E6"/>
    </vehicle>
    <vehicle id="-E1__0__car.0" type="car" depart="26.70" departLane="random">
        <route edges="-E1 E3 E6"/>
    </vehicle>
    <vehicle id="-E2__0__car.1" type="car" depart="28.79" departLane="random">
        <route edges="-E2 -E0"/>
    </vehicle>
    <vehicle id="-E1__0__car.1" type="car" depart="36.79" departLane="random">
        <route edges="-E1 E3 E6"/>
    </vehicle>
    <vehicle id="-E1__0__motorbike.0" type="motorbike" depart="40.54" departLane="random">
        <route edges="-E1 -E0"/>
    </vehicle>
    <vehicle id="-E5__0__car.0" type="car" depart="40.85" departLane="random">
        <route edges="-E5 -E3 E2"/>
    </vehicle>
    <vehicle id="-E4__0__motorbike.2" type="motorbike" depart="44.46" departLane="random">
        <route edges="-E4 E6"/>
    </vehicle>
    <vehicle id="E0__0__car.1" type="car" depart="47.92" departLane="random">
        <route edges="E0 E2"/>
    </vehicle>
    <vehicle id="E0__0__car.2" type="car" depart="52.13" departLane="random">
        <route edges="E0 E2"/>
    </vehicle>
    <vehicle id="-E2__0__motorbike.0" type="motorbike" depart="54.94" departLane="random">
        <route edges="-E2 -E0"/>
    </vehicle>
    <vehicle id="-E5__1__motorbike.0" type="motorbike" depart="60.84" departLane="random">
        <route edges="-E5 -E3 E2"/>
    </vehicle>
    <vehicle id="-E6__1__car.0" type="car" depart="64.16" departLane="random">
        <route edges="-E6 E4"/>
    </vehicle>
    <vehicle id="-E4__1__motorbike.0" type="motorbike" depart="65.68" departLane="random">
        <route edges="-E4 -E3 -E0"/>
    </vehicle>
    <vehicle id="-E1__1__car.0" type="car" depart="67.71" departLane="random">
        <route edges="-E1 E3 E5"/>
    </vehicle>
    <vehicle id="-E1__1__motorbike.0" type="motorbike" depart="70.82" departLane="random">
        <route edges="-E1 E3 E6"/>
    </vehicle>
    <vehicle id="-E4__1__motorbike.1" type="motorbike" depart="75.68" departLane="random">
        <route edges="-E4 E6"/>
    </vehicle>
    <vehicle id="-E5__1__motorbike.1" type="motorbike" depart="76.75" departLane="random">
        <route edges="-E5 -E3 E1"/>
    </vehicle>
    <vehicle id="E0__1__motorbike.0" type="motorbike" depart="79.28" departLane="random">
        <route edges="E0 E2"/>
    </vehicle>
    <vehicle id="E0__1__motorbike.1" type="motorbike" depart="80.32" departLane="random">
        <route edges="E0 E2"/>
    </vehicle>
    <vehicle id="-E5__1__motorbike.2" type="motorbike" depart="83.35" departLane="random">
        <route edges="-E5 E4"/>
    </vehicle>
    <vehicle id="E0__1__motorbike.2" type="motorbike" depart="86.95" departLane="random">
        <route edges="E0 E3 E5"/>
    </vehicle>
    <vehicle id="-E2__1__motorbike.0" type="motorbike" depart="95.91" departLane="random">
        <route edges="-E2 -E0"/>
    </vehicle>
    <vehicle id="-E1__1__motorbike.1" type="motorbike" depart="101.30" departLane="random">
        <route edges="-E1 E2"/>
    </vehicle>
    <vehicle id="-E4__1__car.0" type="car" depart="106.02" departLane="random">
        <route edges="-E4 E5"/>
    </vehicle>
    <vehicle id="-E2__1__motorbike.1" type="motorbike" depart="108.23" departLane="random">
        <route edges="-E2 -E0"/>
    </vehicle>
    <vehicle id="-E6__1__motorbike.0" type="motorbike" depart="111.52" departLane="random">
        <route edges="-E6 -E3 -E0"/>
    </vehicle>
    <vehicle id="-E6__1__motorbike.1" type="motorbike" depart="113.45" departLane="random">
        <route edges="-E6 E4"/>
    </vehicle>
    <vehicle id="-E2__1__car.0" type="car" depart="116.15" departLane="random">
        <route edges="-E2 E1"/>
    </vehicle>
    <vehicle id="-E6__2__car.0" type="car" depart="120.03" departLane="random">
        <route edges="-E6 E5"/>
    </vehicle>
    <vehicle id="-E5__2__car.0" type="car" depart="124.54" departLane="random">
        <route edges="-E5 E4"/>
    </vehicle>
    <vehicle id="-E1__2__car.0" type="car" depart="125.99" departLane="random">
        <route edges="-E1 -E0"/>
    </vehicle>
    <vehicle id="E0__2__motorbike.0" type="motorbike" depart="127.95" departLane="random">
        <route edges="E0 E2"/>
    </vehicle>
    <vehicle id="-E2__2__motorbike.0" type="motorbike" depart="145.22" departLane="random">
        <route edges="-E2 -E0"/>
    </vehicle>
    <vehicle id="-E4__2__motorbike.0" type="motorbike" depart="146.23" departLane="random">
        <route edges="-E4 E6"/>
    </vehicle>
    <vehicle id="-E4__2__car.0" type="car" depart="146.40" departLane="random">
        <route edges="-E4 E6"/>
    </vehicle>
    <vehicle id="-E1__2__motorbike.0" type="motorbike" depart="148.29" departLane="random">
        <route edges="-E1 E3 E4"/>
    </vehicle>
    <vehicle id="-E5__2__motorbike.0" type="motorbike" depart="150.89" departLane="random">
        <route edges="-E5 -E3 E1"/>
    </vehicle>
    <vehicle id="-E2__2__car.0" type="car" depart="151.08" departLane="random">
        <route edges="-E2 E1"/>
    </vehicle>
    <vehicle id="E0__2__motorbike.1" type="motorbike" depart="153.66" departLane="random">
        <route edges="E0 E1"/>
    </vehicle>
    <vehicle id="-E4__2__motorbike.1" type="motorbike" depart="159.15" departLane="random">
        <route edges="-E4 -E3 -E0"/>
    </vehicle>
    <vehicle id="-E1__2__car.1" type="car" depart="163.19" departLane="random">
        <route edges="-E1 E3 E4"/>
    </vehicle>
    <vehicle id="E0__2__motorbike.2" type="motorbike" depart="166.02" departLane="random">
        <route edges="E0 E2"/>
    </vehicle>
    <vehicle id="-E2__2__motorbike.1" type="motorbike" depart="168.14" departLane="random">
        <route edges="-E2 E1"/>
    </vehicle>
    <vehicle id="-E6__2__car.1" type="car" depart="169.14" departLane="random">
        <route edges="-E6 E5"/>
    </vehicle>
    <vehicle id="-E6__2__motorbike.0" type="motorbike" depart="177.89" departLane="random">
        <route edges="-E6 E5"/>
    </vehicle>
    <vehicle id="-E5__2__motorbike.1" type="motorbike" depart="179.78" departLane="random">
        <route edges="-E5 -E3 -E0"/>
    </vehicle>
    <vehicle id="-E5__3__motorbike.0" type="motorbike" depart="181.54" departLane="random">
        <route edges="-E5 -E3 -E0"/>
    </vehicle>
    <vehicle id="-E5__3__car.0" type="car" depart="183.43" departLane="random">
        <route edges="-E5 E4"/>
    </vehicle>
    <vehicle id="E0__3__car.0" type="car" depart="189.31" departLane="random">
        <route edges="E0 E3 E6"/>
    </vehicle>
    <vehicle id="-E1__3__motorbike.0" type="motorbike" depart="191.26" departLane="random">
        <route edges="-E1 E3 E5"/>
    </vehicle>
    <vehicle id="-E6__3__motorbike.0" type="motorbike" depart="192.41" departLane="random">
        <route edges="-E6 E5"/>
    </vehicle>
    <vehicle id="-E6__3__motorbike.1" type="motorbike" depart="193.67" departLane="random">
        <route edges="-E6 E4"/>
    </vehicle>
    <vehicle id="E0__3__car.1" type="car" depart="195.08" departLane="random">
        <route edges="E0 E2"/>
    </vehicle>
    <vehicle id="-E4__3__motorbike.0" type="motorbike" depart="195.59" departLane="random">
        <route edges="-E4 -E3 E1"/>
    </vehicle>
    <vehicle id="-E5__3__motorbike.1" type="motorbike" depart="196.46" departLane="random">
        <route edges="-E5 -E3 -E0"/>
    </vehicle>
    <vehicle id="-E2__3__motorbike.0" type="motorbike" depart="198.84" departLane="random">
        <route edges="-E2 -E0"/>
    </vehicle>
    <vehicle id="-E6__3__motorbike.2" type="motorbike" depart="200.50" departLane="random">
        <route edges="-E6 E4"/>
    </vehicle>
    <vehicle id="-E2__3__motorbike.1" type="motorbike" depart="209.83" departLane="random">
        <route edges="-E2 E1"/>
    </vehicle>
    <vehicle id="-E4__3__car.0" type="car" depart="222.87" departLane="random">
        <route edges="-E4 -E3 E1"/>
    </vehicle>
    <vehicle id="-E2__3__motorbike.2" type="motorbike" depart="223.28" departLane="random">
        <route edges="-E2 -E0"/>
    </vehicle>
    <vehicle id="-E4__3__car.1" type="car" depart="225.90" departLane="random">
        <route edges="-E4 E6"/>
    </vehicle>
    <vehicle id="-E1__3__motorbike.1" type="motorbike" depart="231.42" departLane="random">
        <route edges="-E1 E3 E6"/>
    </vehicle>
    <vehicle id="-E1__3__car.0" type="car" depart="233.47" departLane="random">
        <route edges="-E1 -E0"/>
    </vehicle>
    <vehicle id="E0__3__car.2" type="car" depart="234.52" departLane="random">
        <route edges="E0 E2"/>
    </vehicle>
    <vehicle id="-E5__4__car.0" type="car" depart="248.79" departLane="random">
        <route edges="-E5 E4"/>
    </vehicle>
    <vehicle id="-E2__4__motorbike.0" type="motorbike" depart="248.82" departLane="random">
        <route edges="-E2 -E0"/>
    </vehicle>
    <vehicle id="-E1__4__motorbike.0" type="motorbike" depart="253.75" departLane="random">
        <route edges="-E1 E3 E6"/>
    </vehicle>
    <vehicle id="E0__4__motorbike.0" type="motorbike" depart="256.73" departLane="random">
        <route edges="E0 E2"/>
    </vehicle>
    <vehicle id="-E5__4__motorbike.0" type="motorbike" depart="258.82" departLane="random">
        <route edges="-E5 -E3 E2"/>
    </vehicle>
    <vehicle id="-E4__4__car.0" type="car" depart="261.15" departLane="random">
        <route edges="-E4 E5"/>
    </vehicle>
    <vehicle id="-E4__4__car.1" type="car" depart="261.25" departLane="random">
        <route edges="-E4 -E3 E2"/>
    </vehicle>
    <vehicle id="E0__4__car.0" type="car" depart="265.18" departLane="random">
        <route edges="E0 E3 E5"/>
    </vehicle>
    <vehicle id="-E6__4__motorbike.0" type="motorbike" depart="274.60" departLane="random">
        <route edges="-E6 E5"/>
    </vehicle>
    <vehicle id="E0__4__motorbike.1" type="motorbike" depart="277.85" departLane="random">
        <route edges="E0 E3 E6"/>
    </vehicle>
    <vehicle id="-E2__4__motorbike.1" type="motorbike" depart="280.90" departLane="random">
        <route edges="-E2 -E0"/>
    </vehicle>
    <vehicle id="-E6__4__motorbike.1" type="motorbike" depart="284.11" departLane="random">
        <route edges="-E6 -E3 E1"/>
    </vehicle>
    <vehicle id="-E2__4__car.0" type="car" depart="284.49" departLane="random">
        <route edges="-E2 E3 E6"/>
    </vehicle>
    <vehicle id="-E1__4__motorbike.1" type="motorbike" depart="285.73" departLane="random">
        <route edges="-E1 -E0"/>
    </vehicle>
    <vehicle id="-E4__4__car.2" type="car" depart="288.93" departLane="random">
        <route edges="-E4 -E3 E1"/>
    </vehicle>
    <vehicle id="-E6__4__motorbike.2" type="motorbike" depart="291.29" departLane="random">
        <route edges="-E6 E4"/>
    </vehicle>
    <vehicle id="-E1__4__motorbike.2" type="motorbike" depart="291.75" departLane="random">
        <route edges="-E1 E3 E4"/>
    </vehicle>
    <vehicle id="-E5__4__motorbike.1" type="motorbike" depart="294.15" departLane="random">
        <route edges="-E5 -E3 E2"/>
    </vehicle>
    <vehicle id="E0__5__motorbike.0" type="motorbike" depart="303.60" departLane="random">
        <route edges="E0 E1"/>
    </vehicle>
    <vehicle id="-E1__5__car.0" type="car" depart="309.26" departLane="random">
        <route edges="-E1 -E0"/>
    </vehicle>
    <vehicle id="-E4__5__motorbike.0" type="motorbike" depart="317.41" departLane="random">
        <route edges="-E4 E5"/>
    </vehicle>
    <vehicle id="-E2__5__motorbike.0" type="motorbike" depart="322.40" departLane="random">
        <route edges="-E2 -E0"/>
    </vehicle>
    <vehicle id="-E4__5__car.0" type="car" depart="324.84" departLane="random">
        <route edges="-E4 E6"/>
    </vehicle>
    <vehicle id="-E6__5__motorbike.0" type="motorbike" depart="326.74" departLane="random">
        <route edges="-E6 E4"/>
    </vehicle>
    <vehicle id="-E5__5__motorbike.0" type="motorbike" depart="327.54" departLane="random">
        <route edges="-E5 -E3 E2"/>
    </vehicle>
    <vehicle id="-E5__5__car.0" type="car" depart="329.73" departLane="random">
        <route edges="-E5 E4"/>
    </vehicle>
    <vehicle id="-E1__5__motorbike.0" type="motorbike" depart="334.31" departLane="random">
        <route edges="-E1 E3 E6"/>
    </vehicle>
    <vehicle id="-E1__5__motorbike.1" type="motorbike" depart="336.68" departLane="random">
        <route edges="-E1 -E0"/>
    </vehicle>
    <vehicle id="E0__5__car.0" type="car" depart="337.11" departLane="random">
        <route edges="E0 E3 E6"/>
    </vehicle>
    <vehicle id="-E5__5__car.1" type="car" depart="337.26" departLane="random">
        <route edges="-E5 -E3 E2"/>
    </vehicle>
    <vehicle id="-E6__5__motorbike.1" type="motorbike" depart="337.41" departLane="random">
        <route edges="-E6 E5"/>
    </vehicle>
    <vehicle id="-E6__5__car.0" type="car" depart="344.76" departLane="random">
        <route edges="-E6 E4"/>
    </vehicle>
    <vehicle id="E0__5__motorbike.1" type="motorbike" depart="345.63" departLane="random">
        <route edges="E0 E3 E6"/>
    </vehicle>
    <vehicle id="-E4__5__car.1" type="car" depart="352.22" departLane="random">
        <route edges="-E4 E5"/>
    </vehicle>
    <vehicle id="-E2__5__motorbike.1" type="motorbike" depart="355.70" departLane="random">
        <route edges="-E2 E1"/>
    </vehicle>
    <vehicle id="-E2__5__motorbike.2" type="motorbike" depart="355.99" departLane="random">
        <route edges="-E2 -E0"/>
    </vehicle>
    <vehicle id="-E2__6__car.0" type="car" depart="361.21" departLane="random">
        <route edges="-E2 -E0"/>
    </vehicle>
    <vehicle id="-E4__6__motorbike.0" type="motorbike" depart="367.55" departLane="random">
        <route edges="-E4 E6"/>
    </vehicle>
    <vehicle id="-E5__6__motorbike.0" type="motorbike" depart="375.95" departLane="random">
        <route edges="-E5 E4"/>
    </vehicle>
    <vehicle id="-E4__6__car.0" type="car" depart="378.20" departLane="random">
        <route edges="-E4 E6"/>
    </vehicle>
    <vehicle id="-E6__6__motorbike.0" type="motorbike" depart="382.06" departLane="random">
        <route edges="-E6 -E3 E2"/>
    </vehicle>
    <vehicle id="-E1__6__car.0" type="car" depart="383.58" departLane="random">
        <route edges="-E1 E3 E5"/>
    </vehicle>
    <vehicle id="-E1__6__car.1" type="car" depart="385.07" departLane="random">
        <route edges="-E1 E3 E6"/>
    </vehicle>
    <vehicle id="-E6__6__car.0" type="car" depart="388.08" departLane="random">
        <route edges="-E6 E4"/>
    </vehicle>
    <vehicle id="E0__6__motorbike.0" type="motorbike" depart="391.72" departLane="random">
        <route edges="E0 E2"/>
    </vehicle>
    <vehicle id="E0__6__motorbike.1" type="motorbike" depart="393.39" departLane="random">
        <route edges="E0 E2"/>
    </vehicle>
    <vehicle id="-E6__6__motorbike.1" type="motorbike" depart="397.22" departLane="random">
        <route edges="-E6 E4"/>
    </vehicle>
    <vehicle id="E0__6__car.0" type="car" depart="397.44" departLane="random">
        <route edges="E0 E3 E6"/>
    </vehicle>
    <vehicle id="-E2__6__car.1" type="car" depart="399.01" departLane="random">
        <route edges="-E2 -E0"/>
    </vehicle>
    <vehicle id="-E5__6__motorbike.1" type="motorbike" depart="401.40" departLane="random">
        <route edges="-E5 E4"/>
    </vehicle>
    <vehicle id="-E1__6__motorbike.0" type="motorbike" depart="416.58" departLane="random">
        <route edges="-E1 E2"/>
    </vehicle>
    <vehicle id="-E4__6__motorbike.1" type="motorbike" depart="417.53" departLane="random">
        <route edges="-E4 E6"/>
    </vehicle>
    <vehicle id="-E2__6__motorbike.0" type="motorbike" depart="417.56" departLane="random">
        <route edges="-E2 -E0"/>
    </vehicle>
    <vehicle id="-E5__6__car.0" type="car" depart="419.25" departLane="random">
        <route edges="-E5 E6"/>
    </vehicle>
    <vehicle id="E0__7__car.0" type="car" depart="422.06" departLane="random">
        <route edges="E0 E2"/>
    </vehicle>
    <vehicle id="-E2__7__motorbike.0" type="motorbike" depart="424.42" departLane="random">
        <route edges="-E2 -E0"/>
    </vehicle>
    <vehicle id="-E6__7__car.0" type="car" depart="430.00" departLane="random">
        <route edges="-E6 E4"/>
    </vehicle>
    <vehicle id="-E5__7__motorbike.0" type="motorbike" depart="435.69" departLane="random">
        <route edges="-E5 -E3 E1"/>
    </vehicle>
    <vehicle id="-E5__7__motorbike.1" type="motorbike" depart="437.02" departLane="random">
        <route edges="-E5 -E3 E1"/>
    </vehicle>
    <vehicle id="-E6__7__motorbike.0" type="motorbike" depart="443.93" departLane="random">
        <route edges="-E6 E4"/>
    </vehicle>
    <vehicle id="-E5__7__car.0" type="car" depart="449.95" departLane="random">
        <route edges="-E5 -E3 E1"/>
    </vehicle>
    <vehicle id="-E1__7__car.0" type="car" depart="451.56" departLane="random">
        <route edges="-E1 -E0"/>
    </vehicle>
    <vehicle id="-E2__7__car.0" type="car" depart="455.06" departLane="random">
        <route edges="-E2 E3 E6"/>
    </vehicle>
    <vehicle id="-E4__7__car.0" type="car" depart="457.79" departLane="random">
        <route edges="-E4 -E3 E1"/>
    </vehicle>
    <vehicle id="E0__7__motorbike.0" type="motorbike" depart="466.09" departLane="random">
        <route edges="E0 E3 E5"/>
    </vehicle>
    <vehicle id="-E1__7__car.1" type="car" depart="467.48" departLane="random">
        <route edges="-E1 E3 E6"/>
    </vehicle>
    <vehicle id="-E6__7__motorbike.1" type="motorbike" depart="467.89" departLane="random">
        <route edges="-E6 E4"/>
    </vehicle>
    <vehicle id="E0__7__motorbike.1" type="motorbike" depart="470.50" departLane="random">
        <route edges="E0 E3 E5"/>
    </vehicle>
    <vehicle id="-E2__7__motorbike.1" type="motorbike" depart="472.97" departLane="random">
        <route edges="-E2 -E0"/>
    </vehicle>
    <vehicle id="-E4__7__car.1" type="car" depart="475.99" departLane="random">
        <route edges="-E4 E6"/>
    </vehicle>
    <vehicle id="-E1__7__motorbike.0" type="motorbike" depart="478.13" departLane="random">
        <route edges="-E1 E3 E5"/>
    </vehicle>
    <vehicle id="-E4__7__car.2" type="car" depart="479.84" departLane="random">
        <route edges="-E4 E6"/>
    </vehicle>
    <vehicle id="-E5__8__car.0" type="car" depart="481.71" departLane="random">
        <route edges="-E5 E4"/>
    </vehicle>
    <vehicle id="-E4__8__car.0" type="car" depart="487.76" departLane="random">
        <route edges="-E4 -E3 E1"/>
    </vehicle>
    <vehicle id="-E5__8__motorbike.0" type="motorbike" depart="488.42" departLane="random">
        <route edges="-E5 E4"/>
    </vehicle>
    <vehicle id="-E1__8__motorbike.0" type="motorbike" depart="489.40" departLane="random">
        <route edges="-E1 -E0"/>
    </vehicle>
    <vehicle id="E0__8__motorbike.0" type="motorbike" depart="490.39" departLane="random">
        <route edges="E0 E3 E5"/>
    </vehicle>
    <vehicle id="-E1__8__motorbike.1" type="motorbike" depart="500.50" departLane="random">
        <route edges="-E1 E3 E6"/>
    </vehicle>
    <vehicle id="-E2__8__motorbike.0" type="motorbike" depart="502.48" departLane="random">
        <route edges="-E2 E3 E5"/>
    </vehicle>
    <vehicle id="-E4__8__motorbike.0" type="motorbike" depart="503.69" departLane="random">
        <route edges="-E4 E5"/>
    </vehicle>
    <vehicle id="-E4__8__motorbike.1" type="motorbike" depart="506.20" departLane="random">
        <route edges="-E4 -E3 E1"/>
    </vehicle>
    <vehicle id="-E1__8__car.0" type="car" depart="506.47" departLane="random">
        <route edges="-E1 E3 E5"/>
    </vehicle>
    <vehicle id="E0__8__motorbike.1" type="motorbike" depart="514.59" departLane="random">
        <route edges="E0 E2"/>
    </vehicle>
    <vehicle id="E0__8__motorbike.2" type="motorbike" depart="523.02" departLane="random">
        <route edges="E0 E2"/>
    </vehicle>
    <vehicle id="-E6__8__car.0" type="car" depart="526.71" departLane="random">
        <route edges="-E6 E5"/>
    </vehicle>
    <vehicle id="-E6__8__car.1" type="car" depart="529.36" departLane="random">
        <route edges="-E6 E5"/>
    </vehicle>
    <vehicle id="-E6__8__motorbike.0" type="motorbike" depart="532.05" departLane="random">
        <route edges="-E6 E4"/>
    </vehicle>
    <vehicle id="-E2__8__car.0" type="car" depart="539.77" departLane="random">
        <route edges="-E2 -E0"/>
    </vehicle>
    <vehicle id="-E2__8__motorbike.1" type="motorbike" depart="539.81" departLane="random">
        <route edges="-E2 -E0"/>
    </vehicle>
    <vehicle id="-E5__8__motorbike.1" type="motorbike" depart="539.99" departLane="random">
        <route edges="-E5 -E3 E1"/>
    </vehicle>
    <vehicle id="-E5__9__motorbike.0" type="motorbike" depart="541.02" departLane="random">
        <route edges="-E5 E4"/>
    </vehicle>
    <vehicle id="-E4__9__motorbike.0" type="motorbike" depart="544.61" departLane="random">
        <route edges="-E4 -E3 -E0"/>
    </vehicle>
    <vehicle id="-E4__9__car.0" type="car" depart="545.98" departLane="random">
        <route edges="-E4 E5"/>
    </vehicle>
    <vehicle id="-E1__9__motorbike.0" type="motorbike" depart="546.73" departLane="random">
        <route edges="-E1 -E0"/>
    </vehicle>
    <vehicle id="-E4__9__motorbike.1" type="motorbike" depart="551.59" departLane="random">
        <route edges="-E4 E6"/>
    </vehicle>
    <vehicle id="E0__9__car.0" type="car" depart="554.92" departLane="random">
        <route edges="E0 E2"/>
    </vehicle>
    <vehicle id="-E2__9__car.0" type="car" depart="555.04" departLane="random">
        <route edges="-E2 E1"/>
    </vehicle>
    <vehicle id="-E5__9__car.0" type="car" depart="562.54" departLane="random">
        <route edges="-E5 -E3 E1"/>
    </vehicle>
    <vehicle id="-E2__9__car.1" type="car" depart="566.05" departLane="random">
        <route edges="-E2 -E0"/>
    </vehicle>
    <vehicle id="-E1__9__car.0" type="car" depart="574.15" departLane="random">
        <route edges="-E1 E3 E6"/>
    </vehicle>
    <vehicle id="-E6__9__motorbike.0" type="motorbike" depart="574.33" departLane="random">
        <route edges="-E6 E5"/>
    </vehicle>
    <vehicle id="-E1__9__car.1" type="car" depart="576.78" departLane="random">
        <route edges="-E1 E3 E4"/>
    </vehicle>
    <vehicle id="E0__9__motorbike.0" type="motorbike" depart="580.14" departLane="random">
        <route edges="E0 E1"/>
    </vehicle>
    <vehicle id="-E5__9__motorbike.1" type="motorbike" depart="581.20" departLane="random">
        <route edges="-E5 E4"/>
    </vehicle>
    <vehicle id="E0__9__motorbike.1" type="motorbike" depart="583.04" departLane="random">
        <route edges="E0 E2"/>
    </vehicle>
    <vehicle id="-E6__9__motorbike.1" type="motorbike" depart="592.20" departLane="random">
        <route edges="-E6 E4"/>
    </vehicle>
    <vehicle id="-E6__9__motorbike.2" type="motorbike" depart="595.61" departLane="random">
        <route edges="-E6 E5"/>
    </vehicle>
    <vehicle id="-E2__9__motorbike.0" type="motorbike" depart="598.70" departLane="random">
        <route edges="-E2 -E0"/>
    </vehicle>
</routes>
